                                                                
version 2
run AllAttacks-0-20240429-11:54:29-13928
attr configname AllAttacks
attr datetime 20240429-11:54:29
attr experiment AllAttacks
attr inifile omnetpp.ini
attr iterationvars ""
attr iterationvarsf ""
attr measurement ""
attr network Scenario
attr processid 13928
attr repetition 0
attr replication #0
attr resultdir results
attr runnumber 0
attr seedset 0
param *.node[*].**.attacking true
param *.node[0].**.attackString "\"blackHole\""
param *.node[0].**.sybil true
param *.node[1].**.attackString "\"greyHole\""
param *.node[1].**.greyHoleDropChance 25
param *.node[2].**.attackString "\"DoS\""
param *.node[2].**.DoSPackets 10
param *.node[2].**.impersonating true
param *.node[2].**.impersonatingIPFragOne 10
param *.node[2].**.impersonatingIPFragTwo 0
param *.node[2].**.impersonatingIPFragThree 0
param *.node[2].**.impersonatingIPFragFour 36
param *.node[3].**.attackString "\"delay\""
param *.node[3].**.delayTime 2
param *.node[4].**.attackString "\"wormhole\""
param *.node[4].**.wormholeIPFragOne 10
param *.node[4].**.wormholeIPFragTwo 0
param *.node[4].**.wormholeIPFragThree 0
param *.node[4].**.wormholeIPFragFour 222
param *.node[*].numApps 1
param *.node[*].app[0].typename "\"vanetattackpackage.veins_inet.AttackTestApp\""
param *.node[*].app[0].interface "\"wlan0\""
param *.node[*].wlan[0].opMode "\"p\""
param *.node[*].wlan[0].radio.typename "\"Ieee80211DimensionalRadio\""
param *.node[*].wlan[0].radio.bandName "\"5.9 GHz\""
param *.node[*].wlan[0].radio.channelNumber 3
param *.node[*].wlan[0].radio.transmitter.power 20mW
param *.node[*].wlan[0].radio.bandwidth "10 MHz"
param *.node[*].wlan[*].radio.antenna.mobility.typename "\"AttachedMobility\""
param *.node[*].wlan[*].radio.antenna.mobility.mobilityModule "\"^.^.^.^.mobility\""
param *.node[*].wlan[*].radio.antenna.mobility.offsetX -2.5m
param *.node[*].wlan[*].radio.antenna.mobility.offsetZ 1.5m
param *.node[*].wlan[*].radio.antenna.mobility.constraintAreaMinX 0m
param *.node[*].wlan[*].radio.antenna.mobility.constraintAreaMaxX 0m
param *.node[*].wlan[*].radio.antenna.mobility.constraintAreaMinY 0m
param *.node[*].wlan[*].radio.antenna.mobility.constraintAreaMaxY 0m
param *.node[*].wlan[*].radio.antenna.mobility.constraintAreaMinZ 0m
param *.node[*].wlan[*].radio.antenna.mobility.constraintAreaMaxZ 0m
param *.node[*].ipv4.configurator.typename "\"HostAutoConfigurator\""
param *.node[*].ipv4.configurator.interfaces "\"wlan0\""
param *.node[*].ipv4.configurator.mcastGroups "\"224.0.0.1\""
param *.node[*].mobility.typename "\"VeinsInetMobility\""
param *.manager.updateInterval 0.1s
param *.manager.host "\"localhost\""
param *.manager.port 9999
param *.manager.autoShutdown true
param *.manager.launchConfig "xmldoc(\"motorway.launchd.xml\")"
param *.manager.moduleType "\"vanetattackpackage.veins_inet.VeinsInetAttackingCar\""

vector 0 Scenario.node[0].wlan[0].radio radioMode:vector ETV
attr interpolationmode sample-hold
attr source radioModeChanged
attr title "Radio mode, vector"
vector 1 Scenario.node[0].wlan[0].radio radioChannel:vector ETV
attr interpolationmode sample-hold
attr source radioChannelChanged
attr title "Radio channel, vector"
vector 2 Scenario.node[0].wlan[0].radio receptionState:vector ETV
attr interpolationmode sample-hold
attr source receptionStateChanged
attr title "Radio reception state, vector"
vector 3 Scenario.node[0].wlan[0].mac.dcf.recoveryProcedure contentionWindowChanged:vector ETV
attr interpolationmode sample-hold
attr title "contention window, vector"
vector 4 Scenario.node[1].wlan[0].radio radioMode:vector ETV
attr interpolationmode sample-hold
attr source radioModeChanged
attr title "Radio mode, vector"
vector 5 Scenario.node[1].wlan[0].radio radioChannel:vector ETV
attr interpolationmode sample-hold
attr source radioChannelChanged
attr title "Radio channel, vector"
vector 6 Scenario.node[1].wlan[0].radio receptionState:vector ETV
attr interpolationmode sample-hold
attr source receptionStateChanged
attr title "Radio reception state, vector"
vector 7 Scenario.node[1].wlan[0].mac.dcf.recoveryProcedure contentionWindowChanged:vector ETV
attr interpolationmode sample-hold
attr title "contention window, vector"
vector 8 Scenario.node[2].wlan[0].radio radioMode:vector ETV
attr interpolationmode sample-hold
attr source radioModeChanged
attr title "Radio mode, vector"
vector 9 Scenario.node[2].wlan[0].radio radioChannel:vector ETV
attr interpolationmode sample-hold
attr source radioChannelChanged
attr title "Radio channel, vector"
vector 10 Scenario.node[2].wlan[0].radio receptionState:vector ETV
attr interpolationmode sample-hold
attr source receptionStateChanged
attr title "Radio reception state, vector"
vector 11 Scenario.node[2].wlan[0].mac.dcf.recoveryProcedure contentionWindowChanged:vector ETV
attr interpolationmode sample-hold
attr title "contention window, vector"
vector 12 Scenario.node[3].wlan[0].radio radioMode:vector ETV
attr interpolationmode sample-hold
attr source radioModeChanged
attr title "Radio mode, vector"
vector 13 Scenario.node[3].wlan[0].radio radioChannel:vector ETV
attr interpolationmode sample-hold
attr source radioChannelChanged
attr title "Radio channel, vector"
vector 14 Scenario.node[3].wlan[0].radio receptionState:vector ETV
attr interpolationmode sample-hold
attr source receptionStateChanged
attr title "Radio reception state, vector"
vector 15 Scenario.node[3].wlan[0].mac.dcf.recoveryProcedure contentionWindowChanged:vector ETV
attr interpolationmode sample-hold
attr title "contention window, vector"
vector 16 Scenario.node[4].wlan[0].radio radioMode:vector ETV
attr interpolationmode sample-hold
attr source radioModeChanged
attr title "Radio mode, vector"
vector 17 Scenario.node[4].wlan[0].radio radioChannel:vector ETV
attr interpolationmode sample-hold
attr source radioChannelChanged
attr title "Radio channel, vector"
vector 18 Scenario.node[4].wlan[0].radio receptionState:vector ETV
attr interpolationmode sample-hold
attr source receptionStateChanged
attr title "Radio reception state, vector"
vector 19 Scenario.node[4].wlan[0].mac.dcf.recoveryProcedure contentionWindowChanged:vector ETV
attr interpolationmode sample-hold
attr title "contention window, vector"
vector 20 Scenario.node[0].app[0] packetSent:vector(packetBytes) ETV
attr interpolationmode none
attr source packetSent
attr title "packets sent, vector(packetBytes)"
vector 21 Scenario.node[0].udp packetSent:vector(packetBytes) ETV
attr interpolationmode none
attr source packetSent
attr title "packets sent, vector(packetBytes)"
vector 22 Scenario.node[0].lo[0].lo rcvdPkFromHl:vector(packetBytes) ETV
attr interpolationmode none
attr source packetReceivedFromUpper
attr title "packets received from higher layer, vector(packetBytes)"
vector 23 Scenario.node[0].lo[0].lo passedUpPk:vector(packetBytes) ETV
attr interpolationmode none
attr source packetSentToUpper
attr title "packets passed to higher layer, vector(packetBytes)"
vector 24 Scenario.node[0].ipv4.ip totalPacketsReceieved:vector(packetBytes) ETV
attr interpolationmode none
attr source messageReceived
attr title "packets received from network, vector(packetBytes)"
vector 25 Scenario.node[0].ipv4.ip attackerPacketDropped:vector(packetBytes) ETV
attr interpolationmode none
attr source messageDropped
attr title "packets dropped while attacking, vector(packetBytes)"
vector 26 Scenario.node[0].wlan[0].mac packetReceivedFromUpper:vector(packetBytes) ETV
attr interpolationmode none
attr title "packets received from upper layer, vector(packetBytes)"
vector 27 Scenario.node[0].wlan[0].mac.dcf.channelAccess.pendingQueue packetPushed:vector(packetBytes) ETV
attr interpolationmode none
attr title "packet pushed, vector(packetBytes)"
vector 28 Scenario.node[0].wlan[0].mac.dcf.channelAccess.pendingQueue queueLength:vector ETV
attr interpolationmode sample-hold
attr source "count(packetPushed) - count(packetPopped) - count(packetRemoved) - count(packetDropped)"
attr title "queue length, vector"
vector 29 Scenario.node[0].wlan[0].mac.dcf.channelAccess.contention backoffPeriodGenerated:vector ETV
attr interpolationmode none
attr title "backoff periods, vector"
vector 30 Scenario.node[0].wlan[0].mac.dcf.channelAccess.contention backoffActive:vector ETV
attr interpolationmode sample-hold
attr source count(backoffStarted)-count(backoffStopped)
attr title "backoff active, vector"
vector 31 Scenario.node[0].wlan[0].mac.dcf.channelAccess.pendingQueue packetPopped:vector(packetBytes) ETV
attr interpolationmode none
attr title "packet popped, vector(packetBytes)"
vector 32 Scenario.node[0].wlan[0].mac.dcf.channelAccess.pendingQueue queueingTime:vector ETV
attr interpolationmode none
attr source queueingTime(packetPopped)
attr title "queueing times, vector"
attr unit s
vector 33 Scenario.node[0].wlan[0].mac.dcf.channelAccess.inProgressFrames queueLength:vector ETV
attr interpolationmode sample-hold
attr source "count(packetEnqueued) - count(packetDequeued)"
attr title "queue length, vector"
vector 34 Scenario.node[0].wlan[0].mac.dcf datarateSelected:vector ETV
attr interpolationmode none
attr title "datarates selected, vector"
vector 35 Scenario.node[0].wlan[0].mac packetSentToLower:vector(packetBytes) ETV
attr interpolationmode none
attr title "packets sent to lower layer, vector(packetBytes)"
vector 36 Scenario.node[0].wlan[0].mac.dcf frameSequenceActive:vector ETV
attr interpolationmode sample-hold
attr source count(frameSequenceStarted)-count(frameSequenceFinished)
attr title "frame sequence active, vector"
vector 37 Scenario.node[0].wlan[0].radio transmissionState:vector ETV
attr interpolationmode sample-hold
attr source transmissionStateChanged
attr title "Radio transmission state, vector"
vector 38 Scenario.node[0].wlan[0].mac.dcf packetSentToPeer:vector(packetBytes) ETV
attr interpolationmode none
attr title "packets sent, vector(packetBytes)"
vector 39 Scenario.node[0].wlan[0].mac.dcf packetSentToPeerMulticast:vector(packetBytes) ETV
attr interpolationmode none
attr source ieee80211Multicast(packetSentToPeer)
attr title "packets sent: multicast, vector(packetBytes)"
vector 40 Scenario.node[0].wlan[0].mac.dcf packetSentToPeerWithoutRetry:vector(packetBytes) ETV
attr interpolationmode none
attr source ieee80211NotRetry(packetSentToPeer)
attr title "packets sent: without retry, vector(packetBytes)"
vector 41 Scenario.node[0].wlan[0].mac.dcf.channelAccess.inProgressFrames queueingTime:vector ETV
attr interpolationmode none
attr source queueingTime(packetDequeued)
attr title "queueing times, vector"
vector 42 Scenario.node[1].wlan[0].mac packetReceivedFromLower:vector(packetBytes) ETV
attr interpolationmode none
attr title "packets received from lower layer, vector(packetBytes)"
vector 43 Scenario.node[1].wlan[0].mac.dcf packetReceivedFromPeer:vector(packetBytes) ETV
attr interpolationmode none
attr title "packets received, vector(packetBytes)"
vector 44 Scenario.node[1].wlan[0].mac.dcf packetReceivedFromPeerMulticast:vector(packetBytes) ETV
attr interpolationmode none
attr source ieee80211Multicast(packetReceivedFromPeer)
attr title "packets received: multicast, vector(packetBytes)"
vector 45 Scenario.node[1].wlan[0].mac.dcf packetReceivedFromPeerWithoutRetry:vector(packetBytes) ETV
attr interpolationmode none
attr source ieee80211NotRetry(packetReceivedFromPeer)
attr title "packets received: without retry, vector(packetBytes)"
vector 46 Scenario.node[1].wlan[0].mac packetSentToUpper:vector(packetBytes) ETV
attr interpolationmode none
attr title "packets sent to upper layer, vector(packetBytes)"
vector 47 Scenario.node[1].ipv4.ip totalPacketsReceieved:vector(packetBytes) ETV
attr interpolationmode none
attr source messageReceived
attr title "packets received from network, vector(packetBytes)"
vector 48 Scenario.node[1].ipv4.ip attackerPacketDropped:vector(packetBytes) ETV
attr interpolationmode none
attr source messageDropped
attr title "packets dropped while attacking, vector(packetBytes)"
vector 49 Scenario.node[2].wlan[0].mac packetReceivedFromLower:vector(packetBytes) ETV
attr interpolationmode none
attr title "packets received from lower layer, vector(packetBytes)"
vector 50 Scenario.node[2].wlan[0].mac.dcf packetReceivedFromPeer:vector(packetBytes) ETV
attr interpolationmode none
attr title "packets received, vector(packetBytes)"
vector 51 Scenario.node[2].wlan[0].mac.dcf packetReceivedFromPeerMulticast:vector(packetBytes) ETV
attr interpolationmode none
attr source ieee80211Multicast(packetReceivedFromPeer)
attr title "packets received: multicast, vector(packetBytes)"
vector 52 Scenario.node[2].wlan[0].mac.dcf packetReceivedFromPeerWithoutRetry:vector(packetBytes) ETV
attr interpolationmode none
attr source ieee80211NotRetry(packetReceivedFromPeer)
attr title "packets received: without retry, vector(packetBytes)"
vector 53 Scenario.node[2].wlan[0].mac packetSentToUpper:vector(packetBytes) ETV
attr interpolationmode none
attr title "packets sent to upper layer, vector(packetBytes)"
vector 54 Scenario.node[2].ipv4.ip totalPacketsReceieved:vector(packetBytes) ETV
attr interpolationmode none
attr source messageReceived
attr title "packets received from network, vector(packetBytes)"
vector 55 Scenario.node[2].udp packetReceived:vector(packetBytes) ETV
attr interpolationmode none
attr source packetReceived
attr title "packets received, vector(packetBytes)"
vector 56 Scenario.node[2].udp passedUpPk:vector(count) ETV
attr interpolationmode none
attr source packetSentToUpper
attr title "packets passed up, vector(count)"
vector 57 Scenario.node[2].app[0] packetReceived:vector(packetBytes) ETV
attr interpolationmode none
attr source packetReceived
attr title "packets received, vector(packetBytes)"
vector 58 Scenario.node[2].app[0] throughput:vector ETV
attr source throughput(packetReceived)
attr title "throughput, vector"
attr unit bps
vector 59 Scenario.node[2].app[0] rcvdPkLifetime:vector ETV
attr interpolationmode none
attr source dataAge(packetReceived)
attr title "received packet lifetime, vector"
attr unit s
vector 60 Scenario.node[2].app[0] packetSent:vector(packetBytes) ETV
attr interpolationmode none
attr source packetSent
attr title "packets sent, vector(packetBytes)"
vector 61 Scenario.node[2].udp packetSent:vector(packetBytes) ETV
attr interpolationmode none
attr source packetSent
attr title "packets sent, vector(packetBytes)"
vector 62 Scenario.node[2].lo[0].lo rcvdPkFromHl:vector(packetBytes) ETV
attr interpolationmode none
attr source packetReceivedFromUpper
attr title "packets received from higher layer, vector(packetBytes)"
vector 63 Scenario.node[2].lo[0].lo passedUpPk:vector(packetBytes) ETV
attr interpolationmode none
attr source packetSentToUpper
attr title "packets passed to higher layer, vector(packetBytes)"
vector 64 Scenario.node[2].wlan[0].mac packetReceivedFromUpper:vector(packetBytes) ETV
attr interpolationmode none
attr title "packets received from upper layer, vector(packetBytes)"
vector 65 Scenario.node[2].wlan[0].mac.dcf.channelAccess.pendingQueue packetPushed:vector(packetBytes) ETV
attr interpolationmode none
attr title "packet pushed, vector(packetBytes)"
vector 66 Scenario.node[2].wlan[0].mac.dcf.channelAccess.pendingQueue queueLength:vector ETV
attr interpolationmode sample-hold
attr source "count(packetPushed) - count(packetPopped) - count(packetRemoved) - count(packetDropped)"
attr title "queue length, vector"
vector 67 Scenario.node[2].wlan[0].mac.dcf.channelAccess.contention backoffPeriodGenerated:vector ETV
attr interpolationmode none
attr title "backoff periods, vector"
vector 68 Scenario.node[2].wlan[0].mac.dcf.channelAccess.contention backoffActive:vector ETV
attr interpolationmode sample-hold
attr source count(backoffStarted)-count(backoffStopped)
attr title "backoff active, vector"
vector 69 Scenario.node[3].wlan[0].mac packetReceivedFromLower:vector(packetBytes) ETV
attr interpolationmode none
attr title "packets received from lower layer, vector(packetBytes)"
vector 70 Scenario.node[3].wlan[0].mac.dcf packetReceivedFromPeer:vector(packetBytes) ETV
attr interpolationmode none
attr title "packets received, vector(packetBytes)"
vector 71 Scenario.node[3].wlan[0].mac.dcf packetReceivedFromPeerMulticast:vector(packetBytes) ETV
attr interpolationmode none
attr source ieee80211Multicast(packetReceivedFromPeer)
attr title "packets received: multicast, vector(packetBytes)"
vector 72 Scenario.node[3].wlan[0].mac.dcf packetReceivedFromPeerWithoutRetry:vector(packetBytes) ETV
attr interpolationmode none
attr source ieee80211NotRetry(packetReceivedFromPeer)
attr title "packets received: without retry, vector(packetBytes)"
vector 73 Scenario.node[3].wlan[0].mac packetSentToUpper:vector(packetBytes) ETV
attr interpolationmode none
attr title "packets sent to upper layer, vector(packetBytes)"
vector 74 Scenario.node[3].ipv4.ip totalPacketsReceieved:vector(packetBytes) ETV
attr interpolationmode none
attr source messageReceived
attr title "packets received from network, vector(packetBytes)"
vector 75 Scenario.node[3].udp packetReceived:vector(packetBytes) ETV
attr interpolationmode none
attr source packetReceived
attr title "packets received, vector(packetBytes)"
vector 76 Scenario.node[3].udp passedUpPk:vector(count) ETV
attr interpolationmode none
attr source packetSentToUpper
attr title "packets passed up, vector(count)"
vector 77 Scenario.node[3].app[0] packetReceived:vector(packetBytes) ETV
attr interpolationmode none
attr source packetReceived
attr title "packets received, vector(packetBytes)"
vector 78 Scenario.node[3].app[0] throughput:vector ETV
attr source throughput(packetReceived)
attr title "throughput, vector"
attr unit bps
vector 79 Scenario.node[3].app[0] rcvdPkLifetime:vector ETV
attr interpolationmode none
attr source dataAge(packetReceived)
attr title "received packet lifetime, vector"
attr unit s
vector 80 Scenario.node[3].app[0] packetSent:vector(packetBytes) ETV
attr interpolationmode none
attr source packetSent
attr title "packets sent, vector(packetBytes)"
vector 81 Scenario.node[3].udp packetSent:vector(packetBytes) ETV
attr interpolationmode none
attr source packetSent
attr title "packets sent, vector(packetBytes)"
vector 82 Scenario.node[4].wlan[0].mac packetReceivedFromLower:vector(packetBytes) ETV
attr interpolationmode none
attr title "packets received from lower layer, vector(packetBytes)"
vector 83 Scenario.node[4].wlan[0].mac.dcf packetReceivedFromPeer:vector(packetBytes) ETV
attr interpolationmode none
attr title "packets received, vector(packetBytes)"
vector 84 Scenario.node[4].wlan[0].mac.dcf packetReceivedFromPeerMulticast:vector(packetBytes) ETV
attr interpolationmode none
attr source ieee80211Multicast(packetReceivedFromPeer)
attr title "packets received: multicast, vector(packetBytes)"
vector 85 Scenario.node[4].wlan[0].mac.dcf packetReceivedFromPeerWithoutRetry:vector(packetBytes) ETV
attr interpolationmode none
attr source ieee80211NotRetry(packetReceivedFromPeer)
attr title "packets received: without retry, vector(packetBytes)"
vector 86 Scenario.node[4].wlan[0].mac packetSentToUpper:vector(packetBytes) ETV
attr interpolationmode none
attr title "packets sent to upper layer, vector(packetBytes)"
vector 87 Scenario.node[4].ipv4.ip totalPacketsReceieved:vector(packetBytes) ETV
attr interpolationmode none
attr source messageReceived
attr title "packets received from network, vector(packetBytes)"
vector 88 Scenario.node[4].udp packetReceived:vector(packetBytes) ETV
attr interpolationmode none
attr source packetReceived
attr title "packets received, vector(packetBytes)"
vector 89 Scenario.node[4].udp passedUpPk:vector(count) ETV
attr interpolationmode none
attr source packetSentToUpper
attr title "packets passed up, vector(count)"
vector 90 Scenario.node[4].app[0] packetReceived:vector(packetBytes) ETV
attr interpolationmode none
attr source packetReceived
attr title "packets received, vector(packetBytes)"
vector 91 Scenario.node[4].app[0] throughput:vector ETV
attr source throughput(packetReceived)
attr title "throughput, vector"
attr unit bps
vector 92 Scenario.node[4].app[0] rcvdPkLifetime:vector ETV
attr interpolationmode none
attr source dataAge(packetReceived)
attr title "received packet lifetime, vector"
attr unit s
vector 93 Scenario.node[4].app[0] packetSent:vector(packetBytes) ETV
attr interpolationmode none
attr source packetSent
attr title "packets sent, vector(packetBytes)"
vector 94 Scenario.node[4].udp packetSent:vector(packetBytes) ETV
attr interpolationmode none
attr source packetSent
attr title "packets sent, vector(packetBytes)"
vector 95 Scenario.node[4].ipv4.arp arpRequestSent:vector(packetBytes) ETV
attr source arpRequestSent
attr title "ARP request sent, vector(packetBytes)"
vector 96 Scenario.node[4].wlan[0].mac packetReceivedFromUpper:vector(packetBytes) ETV
attr interpolationmode none
attr title "packets received from upper layer, vector(packetBytes)"
vector 97 Scenario.node[4].wlan[0].mac.dcf.channelAccess.pendingQueue packetPushed:vector(packetBytes) ETV
attr interpolationmode none
attr title "packet pushed, vector(packetBytes)"
vector 98 Scenario.node[4].wlan[0].mac.dcf.channelAccess.pendingQueue queueLength:vector ETV
attr interpolationmode sample-hold
attr source "count(packetPushed) - count(packetPopped) - count(packetRemoved) - count(packetDropped)"
attr title "queue length, vector"
vector 99 Scenario.node[4].wlan[0].mac.dcf.channelAccess.contention backoffPeriodGenerated:vector ETV
attr interpolationmode none
attr title "backoff periods, vector"
vector 100 Scenario.node[4].wlan[0].mac.dcf.channelAccess.contention backoffActive:vector ETV
attr interpolationmode sample-hold
attr source count(backoffStarted)-count(backoffStopped)
attr title "backoff active, vector"
vector 101 Scenario.node[2].wlan[0].mac.dcf.channelAccess.pendingQueue packetPopped:vector(packetBytes) ETV
attr interpolationmode none
attr title "packet popped, vector(packetBytes)"
vector 102 Scenario.node[2].wlan[0].mac.dcf.channelAccess.pendingQueue queueingTime:vector ETV
attr interpolationmode none
attr source queueingTime(packetPopped)
attr title "queueing times, vector"
attr unit s
vector 103 Scenario.node[2].wlan[0].mac.dcf.channelAccess.inProgressFrames queueLength:vector ETV
attr interpolationmode sample-hold
attr source "count(packetEnqueued) - count(packetDequeued)"
attr title "queue length, vector"
vector 104 Scenario.node[2].wlan[0].mac.dcf datarateSelected:vector ETV
attr interpolationmode none
attr title "datarates selected, vector"
vector 105 Scenario.node[2].wlan[0].mac packetSentToLower:vector(packetBytes) ETV
attr interpolationmode none
attr title "packets sent to lower layer, vector(packetBytes)"
vector 106 Scenario.node[2].wlan[0].mac.dcf frameSequenceActive:vector ETV
attr interpolationmode sample-hold
attr source count(frameSequenceStarted)-count(frameSequenceFinished)
attr title "frame sequence active, vector"
vector 107 Scenario.node[2].wlan[0].radio transmissionState:vector ETV
attr interpolationmode sample-hold
attr source transmissionStateChanged
attr title "Radio transmission state, vector"
vector 108 Scenario.node[2].wlan[0].mac.dcf packetSentToPeer:vector(packetBytes) ETV
attr interpolationmode none
attr title "packets sent, vector(packetBytes)"
vector 109 Scenario.node[2].wlan[0].mac.dcf packetSentToPeerMulticast:vector(packetBytes) ETV
attr interpolationmode none
attr source ieee80211Multicast(packetSentToPeer)
attr title "packets sent: multicast, vector(packetBytes)"
vector 110 Scenario.node[2].wlan[0].mac.dcf packetSentToPeerWithoutRetry:vector(packetBytes) ETV
attr interpolationmode none
attr source ieee80211NotRetry(packetSentToPeer)
attr title "packets sent: without retry, vector(packetBytes)"
vector 111 Scenario.node[2].wlan[0].mac.dcf.channelAccess.inProgressFrames queueingTime:vector ETV
attr interpolationmode none
attr source queueingTime(packetDequeued)
attr title "queueing times, vector"
vector 112 Scenario.node[1].udp packetReceived:vector(packetBytes) ETV
attr interpolationmode none
attr source packetReceived
attr title "packets received, vector(packetBytes)"
vector 113 Scenario.node[1].udp passedUpPk:vector(count) ETV
attr interpolationmode none
attr source packetSentToUpper
attr title "packets passed up, vector(count)"
vector 114 Scenario.node[1].app[0] packetReceived:vector(packetBytes) ETV
attr interpolationmode none
attr source packetReceived
attr title "packets received, vector(packetBytes)"
vector 115 Scenario.node[1].app[0] throughput:vector ETV
attr source throughput(packetReceived)
attr title "throughput, vector"
attr unit bps
vector 116 Scenario.node[1].app[0] rcvdPkLifetime:vector ETV
attr interpolationmode none
attr source dataAge(packetReceived)
attr title "received packet lifetime, vector"
attr unit s
vector 117 Scenario.node[1].app[0] packetSent:vector(packetBytes) ETV
attr interpolationmode none
attr source packetSent
attr title "packets sent, vector(packetBytes)"
vector 118 Scenario.node[1].udp packetSent:vector(packetBytes) ETV
attr interpolationmode none
attr source packetSent
attr title "packets sent, vector(packetBytes)"
vector 119 Scenario.node[1].lo[0].lo rcvdPkFromHl:vector(packetBytes) ETV
attr interpolationmode none
attr source packetReceivedFromUpper
attr title "packets received from higher layer, vector(packetBytes)"
vector 120 Scenario.node[1].lo[0].lo passedUpPk:vector(packetBytes) ETV
attr interpolationmode none
attr source packetSentToUpper
attr title "packets passed to higher layer, vector(packetBytes)"
vector 121 Scenario.node[1].wlan[0].mac packetReceivedFromUpper:vector(packetBytes) ETV
attr interpolationmode none
attr title "packets received from upper layer, vector(packetBytes)"
vector 122 Scenario.node[1].wlan[0].mac.dcf.channelAccess.pendingQueue packetPushed:vector(packetBytes) ETV
attr interpolationmode none
attr title "packet pushed, vector(packetBytes)"
vector 123 Scenario.node[1].wlan[0].mac.dcf.channelAccess.pendingQueue queueLength:vector ETV
attr interpolationmode sample-hold
attr source "count(packetPushed) - count(packetPopped) - count(packetRemoved) - count(packetDropped)"
attr title "queue length, vector"
vector 124 Scenario.node[1].wlan[0].mac.dcf.channelAccess.contention backoffPeriodGenerated:vector ETV
attr interpolationmode none
attr title "backoff periods, vector"
vector 125 Scenario.node[1].wlan[0].mac.dcf.channelAccess.contention backoffActive:vector ETV
attr interpolationmode sample-hold
attr source count(backoffStarted)-count(backoffStopped)
attr title "backoff active, vector"
vector 126 Scenario.node[0].wlan[0].mac packetReceivedFromLower:vector(packetBytes) ETV
attr interpolationmode none
attr title "packets received from lower layer, vector(packetBytes)"
vector 127 Scenario.node[0].wlan[0].mac.dcf packetReceivedFromPeer:vector(packetBytes) ETV
attr interpolationmode none
attr title "packets received, vector(packetBytes)"
vector 128 Scenario.node[0].wlan[0].mac.dcf packetReceivedFromPeerMulticast:vector(packetBytes) ETV
attr interpolationmode none
attr source ieee80211Multicast(packetReceivedFromPeer)
attr title "packets received: multicast, vector(packetBytes)"
vector 129 Scenario.node[0].wlan[0].mac.dcf packetReceivedFromPeerWithoutRetry:vector(packetBytes) ETV
attr interpolationmode none
attr source ieee80211NotRetry(packetReceivedFromPeer)
attr title "packets received: without retry, vector(packetBytes)"
vector 130 Scenario.node[0].wlan[0].mac packetSentToUpper:vector(packetBytes) ETV
attr interpolationmode none
attr title "packets sent to upper layer, vector(packetBytes)"
vector 131 Scenario.node[1].wlan[0].mac.dcf.channelAccess.pendingQueue packetPopped:vector(packetBytes) ETV
attr interpolationmode none
attr title "packet popped, vector(packetBytes)"
vector 132 Scenario.node[1].wlan[0].mac.dcf.channelAccess.pendingQueue queueingTime:vector ETV
attr interpolationmode none
attr source queueingTime(packetPopped)
attr title "queueing times, vector"
attr unit s
vector 133 Scenario.node[1].wlan[0].mac.dcf.channelAccess.inProgressFrames queueLength:vector ETV
attr interpolationmode sample-hold
attr source "count(packetEnqueued) - count(packetDequeued)"
attr title "queue length, vector"
vector 134 Scenario.node[1].wlan[0].mac.dcf datarateSelected:vector ETV
attr interpolationmode none
attr title "datarates selected, vector"
vector 135 Scenario.node[1].wlan[0].mac packetSentToLower:vector(packetBytes) ETV
attr interpolationmode none
attr title "packets sent to lower layer, vector(packetBytes)"
vector 136 Scenario.node[1].wlan[0].mac.dcf frameSequenceActive:vector ETV
attr interpolationmode sample-hold
attr source count(frameSequenceStarted)-count(frameSequenceFinished)
attr title "frame sequence active, vector"
vector 137 Scenario.node[1].wlan[0].radio transmissionState:vector ETV
attr interpolationmode sample-hold
attr source transmissionStateChanged
attr title "Radio transmission state, vector"
vector 138 Scenario.node[1].wlan[0].mac.dcf packetSentToPeer:vector(packetBytes) ETV
attr interpolationmode none
attr title "packets sent, vector(packetBytes)"
vector 139 Scenario.node[1].wlan[0].mac.dcf packetSentToPeerMulticast:vector(packetBytes) ETV
attr interpolationmode none
attr source ieee80211Multicast(packetSentToPeer)
attr title "packets sent: multicast, vector(packetBytes)"
vector 140 Scenario.node[1].wlan[0].mac.dcf packetSentToPeerWithoutRetry:vector(packetBytes) ETV
attr interpolationmode none
attr source ieee80211NotRetry(packetSentToPeer)
attr title "packets sent: without retry, vector(packetBytes)"
vector 141 Scenario.node[1].wlan[0].mac.dcf.channelAccess.inProgressFrames queueingTime:vector ETV
attr interpolationmode none
attr source queueingTime(packetDequeued)
attr title "queueing times, vector"
vector 142 Scenario.node[4].wlan[0].mac.dcf.channelAccess.pendingQueue packetPopped:vector(packetBytes) ETV
attr interpolationmode none
attr title "packet popped, vector(packetBytes)"
vector 143 Scenario.node[4].wlan[0].mac.dcf.channelAccess.pendingQueue queueingTime:vector ETV
attr interpolationmode none
attr source queueingTime(packetPopped)
attr title "queueing times, vector"
attr unit s
vector 144 Scenario.node[4].wlan[0].mac.dcf.channelAccess.inProgressFrames queueLength:vector ETV
attr interpolationmode sample-hold
attr source "count(packetEnqueued) - count(packetDequeued)"
attr title "queue length, vector"
vector 145 Scenario.node[4].wlan[0].mac.dcf datarateSelected:vector ETV
attr interpolationmode none
attr title "datarates selected, vector"
vector 146 Scenario.node[4].wlan[0].mac packetSentToLower:vector(packetBytes) ETV
attr interpolationmode none
attr title "packets sent to lower layer, vector(packetBytes)"
vector 147 Scenario.node[4].wlan[0].mac.dcf frameSequenceActive:vector ETV
attr interpolationmode sample-hold
attr source count(frameSequenceStarted)-count(frameSequenceFinished)
attr title "frame sequence active, vector"
vector 148 Scenario.node[4].wlan[0].radio transmissionState:vector ETV
attr interpolationmode sample-hold
attr source transmissionStateChanged
attr title "Radio transmission state, vector"
vector 149 Scenario.node[4].wlan[0].mac.dcf packetSentToPeer:vector(packetBytes) ETV
attr interpolationmode none
attr title "packets sent, vector(packetBytes)"
vector 150 Scenario.node[4].wlan[0].mac.dcf packetSentToPeerMulticast:vector(packetBytes) ETV
attr interpolationmode none
attr source ieee80211Multicast(packetSentToPeer)
attr title "packets sent: multicast, vector(packetBytes)"
vector 151 Scenario.node[4].wlan[0].mac.dcf packetSentToPeerBroadcast:vector(packetBytes) ETV
attr interpolationmode none
attr source ieee80211Broadcast(packetSentToPeer)
attr title "packets sent: broadcast , vector(packetBytes)"
vector 152 Scenario.node[4].wlan[0].mac.dcf packetSentToPeerWithoutRetry:vector(packetBytes) ETV
attr interpolationmode none
attr source ieee80211NotRetry(packetSentToPeer)
attr title "packets sent: without retry, vector(packetBytes)"
vector 153 Scenario.node[4].wlan[0].mac.dcf.channelAccess.inProgressFrames queueingTime:vector ETV
attr interpolationmode none
attr source queueingTime(packetDequeued)
attr title "queueing times, vector"
vector 154 Scenario.node[3].wlan[0].mac.dcf packetReceivedFromPeerBroadcast:vector(packetBytes) ETV
attr interpolationmode none
attr source ieee80211Broadcast(packetReceivedFromPeer)
attr title "packets received: broadcast, vector(packetBytes)"
vector 155 Scenario.node[3].ipv4.arp arpReplySent:vector(packetBytes) ETV
attr source arpReplySent
attr title "ARP replies sent, vector(packetBytes)"
vector 156 Scenario.node[3].wlan[0].mac packetReceivedFromUpper:vector(packetBytes) ETV
attr interpolationmode none
attr title "packets received from upper layer, vector(packetBytes)"
vector 157 Scenario.node[3].wlan[0].mac.dcf.channelAccess.pendingQueue packetPushed:vector(packetBytes) ETV
attr interpolationmode none
attr title "packet pushed, vector(packetBytes)"
vector 158 Scenario.node[3].wlan[0].mac.dcf.channelAccess.pendingQueue queueLength:vector ETV
attr interpolationmode sample-hold
attr source "count(packetPushed) - count(packetPopped) - count(packetRemoved) - count(packetDropped)"
attr title "queue length, vector"
vector 159 Scenario.node[3].wlan[0].mac.dcf.channelAccess.contention backoffPeriodGenerated:vector ETV
attr interpolationmode none
attr title "backoff periods, vector"
vector 160 Scenario.node[3].wlan[0].mac.dcf.channelAccess.contention backoffActive:vector ETV
attr interpolationmode sample-hold
attr source count(backoffStarted)-count(backoffStopped)
attr title "backoff active, vector"
vector 161 Scenario.node[2].wlan[0].mac.dcf packetReceivedFromPeerBroadcast:vector(packetBytes) ETV
attr interpolationmode none
attr source ieee80211Broadcast(packetReceivedFromPeer)
attr title "packets received: broadcast, vector(packetBytes)"
vector 162 Scenario.node[1].wlan[0].mac.dcf packetReceivedFromPeerBroadcast:vector(packetBytes) ETV
attr interpolationmode none
attr source ieee80211Broadcast(packetReceivedFromPeer)
attr title "packets received: broadcast, vector(packetBytes)"
vector 163 Scenario.node[0].wlan[0].mac.dcf packetReceivedFromPeerBroadcast:vector(packetBytes) ETV
attr interpolationmode none
attr source ieee80211Broadcast(packetReceivedFromPeer)
attr title "packets received: broadcast, vector(packetBytes)"
vector 164 Scenario.node[3].wlan[0].mac.dcf.channelAccess.pendingQueue packetPopped:vector(packetBytes) ETV
attr interpolationmode none
attr title "packet popped, vector(packetBytes)"
vector 165 Scenario.node[3].wlan[0].mac.dcf.channelAccess.pendingQueue queueingTime:vector ETV
attr interpolationmode none
attr source queueingTime(packetPopped)
attr title "queueing times, vector"
attr unit s
vector 166 Scenario.node[3].wlan[0].mac.dcf.channelAccess.inProgressFrames queueLength:vector ETV
attr interpolationmode sample-hold
attr source "count(packetEnqueued) - count(packetDequeued)"
attr title "queue length, vector"
vector 167 Scenario.node[3].wlan[0].mac.dcf datarateSelected:vector ETV
attr interpolationmode none
attr title "datarates selected, vector"
vector 168 Scenario.node[3].wlan[0].mac packetSentToLower:vector(packetBytes) ETV
attr interpolationmode none
attr title "packets sent to lower layer, vector(packetBytes)"
vector 169 Scenario.node[3].wlan[0].mac.dcf frameSequenceActive:vector ETV
attr interpolationmode sample-hold
attr source count(frameSequenceStarted)-count(frameSequenceFinished)
attr title "frame sequence active, vector"
vector 170 Scenario.node[3].wlan[0].radio transmissionState:vector ETV
attr interpolationmode sample-hold
attr source transmissionStateChanged
attr title "Radio transmission state, vector"
vector 171 Scenario.node[3].wlan[0].mac.dcf packetSentToPeer:vector(packetBytes) ETV
attr interpolationmode none
attr title "packets sent, vector(packetBytes)"
vector 172 Scenario.node[3].wlan[0].mac.dcf packetSentToPeerUnicast:vector(packetBytes) ETV
attr interpolationmode none
attr source ieee80211Unicast(packetSentToPeer)
attr title "packets sent: unicast, vector(packetBytes)"
vector 173 Scenario.node[3].wlan[0].mac.dcf packetSentToPeerWithoutRetry:vector(packetBytes) ETV
attr interpolationmode none
attr source ieee80211NotRetry(packetSentToPeer)
attr title "packets sent: without retry, vector(packetBytes)"
vector 174 Scenario.node[3].wlan[0].mac.rx nav:vector ETV
attr interpolationmode linear
attr source navChanged
attr title "network allocation vector, vector"
vector 175 Scenario.node[4].wlan[0].mac packetDrop:vector(packetBytes) ETV
attr interpolationmode none
attr source packetDropped
attr title "packet drops, vector(packetBytes)"
vector 176 Scenario.node[4].wlan[0].mac packetDropIncorrectlyReceived:vector(packetBytes) ETV
attr interpolationmode none
attr source packetDropReasonIsIncorrectlyReceived(packetDropped)
attr title "packet drops: incorrectly received, vector(packetBytes)"
vector 177 Scenario.node[1].wlan[0].mac packetDrop:vector(packetBytes) ETV
attr interpolationmode none
attr source packetDropped
attr title "packet drops, vector(packetBytes)"
vector 178 Scenario.node[1].wlan[0].mac packetDropIncorrectlyReceived:vector(packetBytes) ETV
attr interpolationmode none
attr source packetDropReasonIsIncorrectlyReceived(packetDropped)
attr title "packet drops: incorrectly received, vector(packetBytes)"
vector 179 Scenario.node[0].wlan[0].mac packetDrop:vector(packetBytes) ETV
attr interpolationmode none
attr source packetDropped
attr title "packet drops, vector(packetBytes)"
vector 180 Scenario.node[0].wlan[0].mac packetDropIncorrectlyReceived:vector(packetBytes) ETV
attr interpolationmode none
attr source packetDropReasonIsIncorrectlyReceived(packetDropped)
attr title "packet drops: incorrectly received, vector(packetBytes)"
vector 181 Scenario.node[3].wlan[0].mac.dcf packetSentToPeerWithRetry:vector(packetBytes) ETV
attr interpolationmode none
attr source ieee80211Retry(packetSentToPeer)
attr title "packets sent: with retry, vector(packetBytes)"
vector 182 Scenario.node[4].wlan[0].mac.dcf packetReceivedFromPeerUnicast:vector(packetBytes) ETV
attr interpolationmode none
attr source ieee80211Unicast(packetReceivedFromPeer)
attr title "packets received: unicast, vector(packetBytes)"
vector 183 Scenario.node[4].wlan[0].mac.dcf packetReceivedFromPeerWithRetry:vector(packetBytes) ETV
attr interpolationmode none
attr source ieee80211Retry(packetReceivedFromPeer)
attr title "packets received: with retry, vector(packetBytes)"
vector 184 Scenario.node[1].wlan[0].mac.rx nav:vector ETV
attr interpolationmode linear
attr source navChanged
attr title "network allocation vector, vector"
vector 185 Scenario.node[1].wlan[0].mac.dcf packetDrop:vector(packetBytes) ETV
attr interpolationmode none
attr source packetDropped
attr title "packet drops, vector(packetBytes)"
vector 186 Scenario.node[1].wlan[0].mac.dcf packetDropNotAddressedToUs:vector(packetBytes) ETV
attr interpolationmode none
attr source packetDropReasonIsNotAddressedToUs(packetDropped)
attr title "packet drops: not addressed to us, vector(packetBytes)"
vector 187 Scenario.node[1].wlan[0].mac packetDropNotAddressedToUs:vector(packetBytes) ETV
attr interpolationmode none
attr source packetDropReasonIsNotAddressedToUs(packetDropped)
attr title "packet drops: not addressed to us, vector(packetBytes)"
vector 188 Scenario.node[2].wlan[0].mac.rx nav:vector ETV
attr interpolationmode linear
attr source navChanged
attr title "network allocation vector, vector"
vector 189 Scenario.node[2].wlan[0].mac.dcf packetDrop:vector(packetBytes) ETV
attr interpolationmode none
attr source packetDropped
attr title "packet drops, vector(packetBytes)"
vector 190 Scenario.node[2].wlan[0].mac.dcf packetDropNotAddressedToUs:vector(packetBytes) ETV
attr interpolationmode none
attr source packetDropReasonIsNotAddressedToUs(packetDropped)
attr title "packet drops: not addressed to us, vector(packetBytes)"
vector 191 Scenario.node[2].wlan[0].mac packetDrop:vector(packetBytes) ETV
attr interpolationmode none
attr source packetDropped
attr title "packet drops, vector(packetBytes)"
vector 192 Scenario.node[2].wlan[0].mac packetDropNotAddressedToUs:vector(packetBytes) ETV
attr interpolationmode none
attr source packetDropReasonIsNotAddressedToUs(packetDropped)
attr title "packet drops: not addressed to us, vector(packetBytes)"
vector 193 Scenario.node[0].wlan[0].mac.rx nav:vector ETV
attr interpolationmode linear
attr source navChanged
attr title "network allocation vector, vector"
vector 194 Scenario.node[0].wlan[0].mac.dcf packetDrop:vector(packetBytes) ETV
attr interpolationmode none
attr source packetDropped
attr title "packet drops, vector(packetBytes)"
vector 195 Scenario.node[0].wlan[0].mac.dcf packetDropNotAddressedToUs:vector(packetBytes) ETV
attr interpolationmode none
attr source packetDropReasonIsNotAddressedToUs(packetDropped)
attr title "packet drops: not addressed to us, vector(packetBytes)"
vector 196 Scenario.node[0].wlan[0].mac packetDropNotAddressedToUs:vector(packetBytes) ETV
attr interpolationmode none
attr source packetDropReasonIsNotAddressedToUs(packetDropped)
attr title "packet drops: not addressed to us, vector(packetBytes)"
vector 197 Scenario.node[4].wlan[0].mac.dcf packetSentToPeerUnicast:vector(packetBytes) ETV
attr interpolationmode none
attr source ieee80211Unicast(packetSentToPeer)
attr title "packets sent: unicast, vector(packetBytes)"
vector 198 Scenario.node[3].wlan[0].mac.dcf packetReceivedFromPeerUnicast:vector(packetBytes) ETV
attr interpolationmode none
attr source ieee80211Unicast(packetReceivedFromPeer)
attr title "packets received: unicast, vector(packetBytes)"
vector 199 Scenario.node[3].wlan[0].mac.dcf.channelAccess.inProgressFrames queueingTime:vector ETV
attr interpolationmode none
attr source queueingTime(packetDequeued)
attr title "queueing times, vector"
vector 200 Scenario.node[4].wlan[0].mac.rx nav:vector ETV
attr interpolationmode linear
attr source navChanged
attr title "network allocation vector, vector"
vector 201 Scenario.node[3].lo[0].lo rcvdPkFromHl:vector(packetBytes) ETV
attr interpolationmode none
attr source packetReceivedFromUpper
attr title "packets received from higher layer, vector(packetBytes)"
vector 202 Scenario.node[3].lo[0].lo passedUpPk:vector(packetBytes) ETV
attr interpolationmode none
attr source packetSentToUpper
attr title "packets passed to higher layer, vector(packetBytes)"
vector 203 Scenario.node[3].wlan[0].mac.dcf packetSentToPeerMulticast:vector(packetBytes) ETV
attr interpolationmode none
attr source ieee80211Multicast(packetSentToPeer)
attr title "packets sent: multicast, vector(packetBytes)"
0	43318 67 12 233 1.1 20.000152 5 0 3 7 17
1	43385 12 12 12 1.1 1.1 1 3 3 3 9
2	43397 916 12 867 1.1 22.000305022742 38 0 3 72 176
3	44313 13 12 12 1.1 1.1 1 15 15 15 225
4	44326 86 25 373 2.1 20.000689466434 5 0 3 7 17
5	44412 12 25 25 2.1 2.1 1 3 3 3 9
6	44424 935 25 863 2.1 22.000304831991 38 0 3 72 176
7	45359 13 25 25 2.1 2.1 1 15 15 15 225
8	45372 536 38 774 3.1 20.004325039374 23 0 3 52 134
9	45908 12 38 38 3.1 3.1 1 3 3 3 9
10	45920 949 38 857 3.1 22.000304829982 37 0 3 43 91
11	46869 14 38 38 3.1 3.1 1 15 15 15 225
12	46883 245 61 850 5.1 22.000304511809 11 0 3 22 56
13	47128 13 61 61 5.1 5.1 1 3 3 3 9
14	47141 971 61 850 5.1 22.000304511809 38 0 3 63 149
15	48112 67 61 554 5.1 20.002142741451 3 15 31 61 1411
16	48179 195 74 573 6.1 20.002365603168 9 0 3 17 43
17	48374 13 74 74 6.1 6.1 1 3 3 3 9
18	48387 975 74 851 6.1 22.000304656289 38 0 3 66 158
19	49362 14 74 74 6.1 6.1 1 15 15 15 225
20	49376 15 216 216 20 20 1 100 100 100 10000
21	49391 15 218 218 20 20 1 108 108 108 11664
22	49406 15 220 220 20 20 1 128 128 128 16384
23	49421 15 220 220 20 20 1 128 128 128 16384
24	49436 323 222 870 20 22.000305022742 12 128 128 1536 196608
25	49759 323 222 870 20 22.000305022742 12 128 128 1536 196608
26	50082 15 223 223 20 20 1 130 130 130 16900
27	50097 15 223 223 20 20 1 158 158 158 24964
28	50112 26 223 225 20 20 2 0 1 1 1
29	50138 13 223 223 20 20 1 8 8 8 64
30	50151 26 223 224 20 20 2 0 1 1 1
31	50177 15 225 225 20 20 1 158 158 158 24964
32	50192 13 225 225 20 20 1 0 0 0 0
33	50205 33 225 232 20 20.000152 2 0 1 1 1
34	50238 20 225 225 20 20 1 12000000 12000000 12000000 1.44e+014
35	50258 15 225 225 20 20 1 158 158 158 24964
36	50273 33 225 232 20 20.000152 2 0 1 1 1
37	50306 66 226 233 20 20.000152 4 0 2 4 6
38	50372 22 232 232 20.000152 20.000152 1 158 158 158 24964
39	50394 22 232 232 20.000152 20.000152 1 158 158 158 24964
40	50416 22 232 232 20.000152 20.000152 1 158 158 158 24964
41	50438 27 232 232 20.000152 20.000152 1 0.000152 0.000152 0.000152 2.3104e-008
42	50465 470 235 864 20.000152258461 22.000304831991 17 14 158 2098 310052
43	50935 334 235 864 20.000152258461 22.000304831991 12 58 158 1796 277968
44	51269 334 235 864 20.000152258461 22.000304831991 12 58 158 1796 277968
45	51603 334 235 864 20.000152258461 22.000304831991 12 58 158 1796 277968
46	51937 334 235 864 20.000152258461 22.000304831991 12 30 130 1460 186800
47	52271 336 237 866 20.000152258461 22.000304831991 12 128 128 1536 196608
48	52607 84 237 866 20.000152258461 22.000304831991 3 128 128 384 49152
49	52691 220 239 858 20.000152353281 22.000304829982 8 14 158 776 106976
50	52911 111 239 858 20.000152353281 22.000304829982 4 58 158 532 78256
51	53022 111 239 858 20.000152353281 22.000304829982 4 58 158 532 78256
52	53133 111 239 858 20.000152353281 22.000304829982 4 58 158 532 78256
53	53244 111 239 858 20.000152353281 22.000304829982 4 30 130 420 51600
54	53355 364 241 860 20.000152353281 22.000304829982 13 128 128 1664 212992
55	53719 364 242 861 20.000152353281 22.000304829982 13 108 108 1404 151632
56	54083 342 242 861 20.000152353281 22.000304829982 13 1 13 91 819
57	54425 364 243 862 20.000152353281 22.000304829982 13 100 100 1300 130000
58	54789 3161 243 862 0.1 22 220 0 96000 96000 9216000000
59	57950 507 243 862 20.000152353281 22.000304829982 13 0.000152353281 2.000304829982 2.00267029566 4.0012201436961
60	58457 28 243 243 20.000152353281 20.000152353281 1 100 100 100 10000
61	58485 28 244 244 20.000152353281 20.000152353281 1 108 108 108 11664
62	58513 280 246 255 20.000152353281 20.000152353281 10 128 128 1280 163840
63	58793 280 246 255 20.000152353281 20.000152353281 10 128 128 1280 163840
64	59073 280 276 285 20.000152353281 20.000152353281 10 130 130 1300 169000
65	59353 280 276 285 20.000152353281 20.000152353281 10 158 158 1580 249640
66	59633 521 276 736 20.000152353281 20.003846039374 20 0 10 100 670
67	60154 263 276 743 20.000152353281 20.003998039374 10 5 14 91 893
68	60417 832 276 765 20.000152353281 20.004173039374 32 0 1 16 16
69	61249 389 307 782 20.000152511809 20.004325337297 14 14 158 1968 303128
70	61638 389 307 782 20.000152511809 20.004325337297 14 14 158 1968 303128
71	62027 334 307 782 20.000152511809 20.004325337297 12 58 158 1796 277968
72	62361 389 307 782 20.000152511809 20.004325337297 14 14 158 1968 303128
73	62750 362 307 782 20.000152511809 20.004325337297 13 30 130 1590 203700
74	63112 364 309 837 20.000152511809 22.000152511809 13 128 128 1664 212992
75	63476 364 310 839 20.000152511809 22.000152511809 13 108 108 1404 151632
76	63840 342 310 839 20.000152511809 22.000152511809 13 1 13 91 819
77	64182 364 311 840 20.000152511809 22.000152511809 13 100 100 1300 130000
78	64546 3161 311 840 0.1 22 220 0 96000 96000 9216000000
79	67707 507 311 840 20.000152511809 22.000152511809 13 0.000152511809 2.000152511809 2.028143127497 4.000697348502
80	68214 28 311 311 20.000152511809 20.000152511809 1 100 100 100 10000
81	68242 28 312 312 20.000152511809 20.000152511809 1 108 108 108 11664
82	68270 417 315 852 20.000152615437 22.000304656289 15 14 158 2026 306492
83	68687 390 315 852 20.000152615437 22.000304656289 14 14 158 1968 303128
84	69077 336 315 852 20.000152615437 22.000304656289 12 158 158 1896 299568
85	69413 363 315 852 20.000152615437 22.000304656289 13 14 158 1910 299764
86	69776 363 315 852 20.000152615437 22.000304656289 13 30 130 1590 203700
87	70139 336 317 854 20.000152615437 22.000304656289 12 128 128 1536 196608
88	70475 336 318 855 20.000152615437 22.000304656289 12 108 108 1296 139968
89	70811 315 318 855 20.000152615437 22.000304656289 12 1 12 78 650
90	71126 336 319 856 20.000152615437 22.000304656289 12 100 100 1200 120000
91	71462 3161 319 856 0.1 22 220 0 88000 88000 7744000000
92	74623 468 319 856 20.000152615437 22.000304656289 12 0.000152615437 2.000304656289 2.025930014817 4.0013004010523
93	75091 28 319 319 20.000152615437 20.000152615437 1 100 100 100 10000
94	75119 28 320 320 20.000152615437 20.000152615437 1 108 108 108 11664
95	75147 27 321 321 20.000152615437 20.000152615437 1 28 28 28 784
96	75174 55 323 536 20.000152615437 20.002054603168 2 30 130 160 17800
97	75229 55 323 536 20.000152615437 20.002054603168 2 58 158 216 28328
98	75284 104 323 565 20.000152615437 20.002213603168 4 0 1 2 2
99	75388 53 323 536 20.000152615437 20.002054603168 2 1 12 13 145
100	75441 270 323 564 20.000152615437 20.002213603168 10 0 1 5 5
101	75711 290 325 736 20.000314353281 20.003846039374 10 158 158 1580 249640
102	76001 388 325 736 20.000314353281 20.003846039374 10 0.000162 0.003693686093 0.019040871508 5.1515346780062e-005
103	76389 540 325 773 20.000314353281 20.004325039374 20 0 2 28 46
104	76929 340 325 766 20.000314353281 20.004173039374 10 12000000 12000000 120000000 1.44e+015
105	77269 290 325 766 20.000314353281 20.004173039374 10 158 158 1580 249640
106	77559 540 325 773 20.000314353281 20.004325039374 20 0 1 10 10
107	78099 1080 326 774 20.000314353281 20.004325039374 40 0 2 40 60
108	79179 290 332 773 20.000466353281 20.004325039374 10 158 158 1580 249640
109	79469 290 332 773 20.000466353281 20.004325039374 10 158 158 1580 249640
110	79759 290 332 773 20.000466353281 20.004325039374 10 158 158 1580 249640
111	80049 352 332 773 20.000466353281 20.004325039374 10 0.000152 0.000998872412 0.005378686093 3.3828077605075e-006
112	80401 261 338 779 20.000466466434 20.004325152527 9 108 108 972 104976
113	80662 243 338 779 20.000466466434 20.004325152527 9 1 9 45 285
114	80905 261 339 780 20.000466466434 20.004325152527 9 100 100 900 90000
115	81166 3061 339 339 0.1 20 200 0 0 0 0
116	84227 360 339 780 20.000466466434 20.004325152527 9 0.000466466434 0.004325152527 0.021249255733 6.5405457497679e-005
117	84587 29 339 339 20.000466466434 20.000466466434 1 100 100 100 10000
118	84616 29 340 340 20.000466466434 20.000466466434 1 108 108 108 11664
119	84645 29 342 342 20.000466466434 20.000466466434 1 128 128 128 16384
120	84674 29 342 342 20.000466466434 20.000466466434 1 128 128 128 16384
121	84703 29 345 345 20.000466466434 20.000466466434 1 130 130 130 16900
122	84732 29 345 345 20.000466466434 20.000466466434 1 158 158 158 24964
123	84761 54 345 365 20.000466466434 20.000537466434 2 0 1 1 1
124	84815 27 345 345 20.000466466434 20.000466466434 1 1 1 1 1
125	84842 54 345 364 20.000466466434 20.000537466434 2 0 1 1 1
126	84896 487 361 868 20.000466706562 22.000305022742 17 14 158 2098 310052
127	85383 347 361 868 20.000466706562 22.000305022742 12 58 158 1796 277968
128	85730 347 361 868 20.000466706562 22.000305022742 12 58 158 1796 277968
129	86077 347 361 868 20.000466706562 22.000305022742 12 58 158 1796 277968
130	86424 347 361 868 20.000466706562 22.000305022742 12 30 130 1460 186800
131	86771 29 365 365 20.000537466434 20.000537466434 1 158 158 158 24964
132	86800 34 365 365 20.000537466434 20.000537466434 1 7.1e-005 7.1e-005 7.1e-005 5.041e-009
133	86834 54 365 372 20.000537466434 20.000689466434 2 0 1 1 1
134	86888 34 365 365 20.000537466434 20.000537466434 1 12000000 12000000 12000000 1.44e+014
135	86922 29 365 365 20.000537466434 20.000537466434 1 158 158 158 24964
136	86951 54 365 372 20.000537466434 20.000689466434 2 0 1 1 1
137	87005 108 366 373 20.000537466434 20.000689466434 4 0 2 4 6
138	87113 29 372 372 20.000689466434 20.000689466434 1 158 158 158 24964
139	87142 29 372 372 20.000689466434 20.000689466434 1 158 158 158 24964
140	87171 29 372 372 20.000689466434 20.000689466434 1 158 158 158 24964
141	87200 34 372 372 20.000689466434 20.000689466434 1 0.000152 0.000152 0.000152 2.3104e-008
142	87234 57 397 565 20.000786835377 20.002213603168 2 58 158 216 28328
143	87291 73 397 565 20.000786835377 20.002213603168 2 0.000159 0.00063421994 0.00079321994 4.275159322936e-007
144	87364 108 397 597 20.000786835377 20.002453879734 4 0 1 2 2
145	87472 102 397 565 20.000786835377 20.002213603168 3 12000000 12000000 36000000 4.32e+014
146	87574 85 397 565 20.000786835377 20.002213603168 3 14 158 230 28524
147	87659 108 397 597 20.000786835377 20.002453879734 4 0 1 2 2
148	87767 324 398 573 20.000786835377 20.002365603168 12 0 2 12 18
149	88091 85 404 572 20.000874835377 20.002365603168 3 14 158 230 28524
150	88176 28 404 404 20.000874835377 20.000874835377 1 58 58 58 3364
151	88204 28 404 404 20.000874835377 20.000874835377 1 58 58 58 3364
152	88232 85 404 572 20.000874835377 20.002365603168 3 14 158 230 28524
153	88317 74 404 597 20.000874835377 20.002453879734 2 8.8e-005 0.000240276566 0.000328276566 6.5476828168752e-008
154	88391 27 407 407 20.00087497366 20.00087497366 1 58 58 58 3364
155	88418 27 409 409 20.00087497366 20.00087497366 1 28 28 28 784
156	88445 56 411 838 20.00087497366 22.000152511809 2 30 130 160 17800
157	88501 56 411 838 20.00087497366 22.000152511809 2 58 158 216 28328
158	88557 106 411 842 20.00087497366 22.000152511809 4 0 1 2 2
159	88663 80 411 838 20.00087497366 22.000152511809 3 4 23 33 581
160	88743 267 411 841 20.00087497366 22.000152511809 10 0 1 5 5
161	89010 28 413 413 20.000875166962 20.000875166962 1 58 58 58 3364
162	89038 27 417 417 20.00087520432 20.00087520432 1 58 58 58 3364
163	89065 28 421 421 20.000875450814 20.000875450814 1 58 58 58 3364
164	89093 56 425 842 20.00101097366 22.000152511809 2 58 158 216 28328
165	89149 60 425 842 20.00101097366 22.000152511809 2 0 0.000136 0.000136 1.8496e-008
166	89209 107 425 849 20.00101097366 22.000304511809 4 0 1 2 2
167	89316 135 425 842 20.00101097366 22.000152511809 4 12000000 12000000 48000000 5.76e+014
168	89451 112 425 842 20.00101097366 22.000152511809 4 14 158 288 31888
169	89563 160 425 849 20.00101097366 22.000304511809 6 0 1 3 3
170	89723 428 426 850 20.00101097366 22.000304511809 16 0 2 16 24
171	90151 112 440 849 20.00109897366 22.000304511809 4 14 158 288 31888
172	90263 83 440 594 20.00109897366 20.002453741451 3 14 58 130 6924
173	90346 84 440 849 20.00109897366 22.000304511809 3 14 158 230 28524
174	90430 173 440 550 20.00109897366 20.002142464885 6 0 8.8e-005 0.000176 1.5488e-008
175	90603 28 443 443 20.001099111943 20.001099111943 1 58 58 58 3364
176	90631 28 443 443 20.001099111943 20.001099111943 1 58 58 58 3364
177	90659 141 445 601 20.001099264898 20.002454032689 5 14 158 302 32084
178	90800 28 445 445 20.001099264898 20.001099264898 1 58 58 58 3364
179	90828 140 448 606 20.001099485469 20.00245425326 5 14 158 302 32084
180	90968 28 448 448 20.001099485469 20.001099485469 1 58 58 58 3364
181	90996 28 529 529 20.002054464885 20.002054464885 1 58 58 58 3364
182	91024 56 532 597 20.002054603168 20.002453879734 2 14 58 72 3560
183	91080 28 532 532 20.002054603168 20.002054603168 1 58 58 58 3364
184	91108 176 538 599 20.002054756123 20.002453972111 6 0 8.8e-005 0.000176 1.5488e-008
185	91284 113 538 601 20.002054756123 20.002454032689 4 14 158 244 28720
186	91397 113 538 601 20.002054756123 20.002454032689 4 14 158 244 28720
187	91510 113 538 601 20.002054756123 20.002454032689 4 14 158 244 28720
188	91623 176 540 598 20.002054762808 20.002453934753 6 0 8.8e-005 0.000176 1.5488e-008
189	91799 113 540 603 20.002054762808 20.002454039374 4 14 158 244 28720
190	91912 113 540 603 20.002054762808 20.002454039374 4 14 158 244 28720
191	92025 113 540 603 20.002054762808 20.002454039374 4 14 158 244 28720
192	92138 113 540 603 20.002054762808 20.002454039374 4 14 158 244 28720
193	92251 176 542 604 20.002054976694 20.002454218605 6 0 8.8e-005 0.000176 1.5488e-008
194	92427 112 542 606 20.002054976694 20.00245425326 4 14 158 244 28720
195	92539 112 542 606 20.002054976694 20.00245425326 4 14 158 244 28720
196	92651 112 542 606 20.002054976694 20.00245425326 4 14 158 244 28720
197	92763 57 551 572 20.002142603168 20.002365603168 2 14 158 172 25160
198	92820 57 554 575 20.002142741451 20.002365741451 2 14 158 172 25160
199	92877 74 554 849 20.002142741451 22.000304511809 2 0.000152 0.001131767791 0.001283767791 1.304002332745e-006
200	92951 88 572 593 20.002365603168 20.002453603168 3 0 8.8e-005 8.8e-005 7.744e-009
201	93039 29 835 835 22.000152511809 22.000152511809 1 128 128 128 16384
202	93068 29 835 835 22.000152511809 22.000152511809 1 128 128 128 16384
203	93097 29 849 849 22.000304511809 22.000304511809 1 158 158 158 24964
