version 2
run BlackholeAttack-0-20240429-20:20:29-3100
attr configname BlackholeAttack
attr datetime 20240429-20:20:29
attr experiment BlackholeAttack
attr inifile omnetpp.ini
attr iterationvars ""
attr iterationvarsf ""
attr measurement ""
attr network Scenario
attr processid 3100
attr repetition 0
attr replication #0
attr resultdir results
attr runnumber 0
attr seedset 0
param *.node[*].**.attacking true
param *.node[*].**.attackString "\"blackHole\""
param *.node[*].numApps 1
param *.node[*].app[0].typename "\"vanetattackpackage.veins_inet.AttackTestApp\""
param *.node[*].app[0].interface "\"wlan0\""
param *.node[*].wlan[0].opMode "\"p\""
param *.node[*].wlan[0].radio.typename "\"Ieee80211DimensionalRadio\""
param *.node[*].wlan[0].radio.bandName "\"5.9 GHz\""
param *.node[*].wlan[0].radio.channelNumber 3
param *.node[*].wlan[0].radio.transmitter.power 20mW
param *.node[*].wlan[0].radio.bandwidth "10 MHz"
param *.node[*].wlan[*].radio.antenna.mobility.typename "\"AttachedMobility\""
param *.node[*].wlan[*].radio.antenna.mobility.mobilityModule "\"^.^.^.^.mobility\""
param *.node[*].wlan[*].radio.antenna.mobility.offsetX -2.5m
param *.node[*].wlan[*].radio.antenna.mobility.offsetZ 1.5m
param *.node[*].wlan[*].radio.antenna.mobility.constraintAreaMinX 0m
param *.node[*].wlan[*].radio.antenna.mobility.constraintAreaMaxX 0m
param *.node[*].wlan[*].radio.antenna.mobility.constraintAreaMinY 0m
param *.node[*].wlan[*].radio.antenna.mobility.constraintAreaMaxY 0m
param *.node[*].wlan[*].radio.antenna.mobility.constraintAreaMinZ 0m
param *.node[*].wlan[*].radio.antenna.mobility.constraintAreaMaxZ 0m
param *.node[*].ipv4.configurator.typename "\"HostAutoConfigurator\""
param *.node[*].ipv4.configurator.interfaces "\"wlan0\""
param *.node[*].ipv4.configurator.mcastGroups "\"224.0.0.1\""
param *.node[*].mobility.typename "\"VeinsInetMobility\""
param *.manager.updateInterval 0.1s
param *.manager.host "\"localhost\""
param *.manager.port 9999
param *.manager.autoShutdown true
param *.manager.launchConfig "xmldoc(\"motorway.launchd.xml\")"
param *.manager.moduleType "\"vanetattackpackage.veins_inet.VeinsInetAttackingCar\""

vector 0 Scenario.node[0].wlan[0].radio radioMode:vector ETV
attr interpolationmode sample-hold
attr source radioModeChanged
attr title "Radio mode, vector"
vector 1 Scenario.node[0].wlan[0].radio radioChannel:vector ETV
attr interpolationmode sample-hold
attr source radioChannelChanged
attr title "Radio channel, vector"
vector 2 Scenario.node[0].wlan[0].radio receptionState:vector ETV
attr interpolationmode sample-hold
attr source receptionStateChanged
attr title "Radio reception state, vector"
vector 3 Scenario.node[0].wlan[0].mac.dcf.recoveryProcedure contentionWindowChanged:vector ETV
attr interpolationmode sample-hold
attr title "contention window, vector"
vector 4 Scenario.node[1].wlan[0].radio radioMode:vector ETV
attr interpolationmode sample-hold
attr source radioModeChanged
attr title "Radio mode, vector"
vector 5 Scenario.node[1].wlan[0].radio radioChannel:vector ETV
attr interpolationmode sample-hold
attr source radioChannelChanged
attr title "Radio channel, vector"
vector 6 Scenario.node[1].wlan[0].radio receptionState:vector ETV
attr interpolationmode sample-hold
attr source receptionStateChanged
attr title "Radio reception state, vector"
vector 7 Scenario.node[1].wlan[0].mac.dcf.recoveryProcedure contentionWindowChanged:vector ETV
attr interpolationmode sample-hold
attr title "contention window, vector"
vector 8 Scenario.node[2].wlan[0].radio radioMode:vector ETV
attr interpolationmode sample-hold
attr source radioModeChanged
attr title "Radio mode, vector"
vector 9 Scenario.node[2].wlan[0].radio radioChannel:vector ETV
attr interpolationmode sample-hold
attr source radioChannelChanged
attr title "Radio channel, vector"
vector 10 Scenario.node[2].wlan[0].radio receptionState:vector ETV
attr interpolationmode sample-hold
attr source receptionStateChanged
attr title "Radio reception state, vector"
vector 11 Scenario.node[2].wlan[0].mac.dcf.recoveryProcedure contentionWindowChanged:vector ETV
attr interpolationmode sample-hold
attr title "contention window, vector"
vector 12 Scenario.node[3].wlan[0].radio radioMode:vector ETV
attr interpolationmode sample-hold
attr source radioModeChanged
attr title "Radio mode, vector"
vector 13 Scenario.node[3].wlan[0].radio radioChannel:vector ETV
attr interpolationmode sample-hold
attr source radioChannelChanged
attr title "Radio channel, vector"
vector 14 Scenario.node[3].wlan[0].radio receptionState:vector ETV
attr interpolationmode sample-hold
attr source receptionStateChanged
attr title "Radio reception state, vector"
vector 15 Scenario.node[3].wlan[0].mac.dcf.recoveryProcedure contentionWindowChanged:vector ETV
attr interpolationmode sample-hold
attr title "contention window, vector"
vector 16 Scenario.node[4].wlan[0].radio radioMode:vector ETV
attr interpolationmode sample-hold
attr source radioModeChanged
attr title "Radio mode, vector"
vector 17 Scenario.node[4].wlan[0].radio radioChannel:vector ETV
attr interpolationmode sample-hold
attr source radioChannelChanged
attr title "Radio channel, vector"
vector 18 Scenario.node[4].wlan[0].radio receptionState:vector ETV
attr interpolationmode sample-hold
attr source receptionStateChanged
attr title "Radio reception state, vector"
vector 19 Scenario.node[4].wlan[0].mac.dcf.recoveryProcedure contentionWindowChanged:vector ETV
attr interpolationmode sample-hold
attr title "contention window, vector"
vector 20 Scenario.node[0].app[0] packetSent:vector(packetBytes) ETV
attr interpolationmode none
attr source packetSent
attr title "packets sent, vector(packetBytes)"
vector 21 Scenario.node[0].udp packetSent:vector(packetBytes) ETV
attr interpolationmode none
attr source packetSent
attr title "packets sent, vector(packetBytes)"
vector 22 Scenario.node[0].lo[0].lo rcvdPkFromHl:vector(packetBytes) ETV
attr interpolationmode none
attr source packetReceivedFromUpper
attr title "packets received from higher layer, vector(packetBytes)"
vector 23 Scenario.node[0].lo[0].lo passedUpPk:vector(packetBytes) ETV
attr interpolationmode none
attr source packetSentToUpper
attr title "packets passed to higher layer, vector(packetBytes)"
vector 24 Scenario.node[0].ipv4.ip totalPacketsReceieved:vector(packetBytes) ETV
attr interpolationmode none
attr source messageReceived
attr title "packets received from network, vector(packetBytes)"
vector 25 Scenario.node[0].ipv4.ip attackerPacketDropped:vector(packetBytes) ETV
attr interpolationmode none
attr source messageDropped
attr title "packets dropped while attacking, vector(packetBytes)"
vector 26 Scenario.node[0].wlan[0].mac packetReceivedFromUpper:vector(packetBytes) ETV
attr interpolationmode none
attr title "packets received from upper layer, vector(packetBytes)"
vector 27 Scenario.node[0].wlan[0].mac.dcf.channelAccess.pendingQueue packetPushed:vector(packetBytes) ETV
attr interpolationmode none
attr title "packet pushed, vector(packetBytes)"
vector 28 Scenario.node[0].wlan[0].mac.dcf.channelAccess.pendingQueue queueLength:vector ETV
attr interpolationmode sample-hold
attr source "count(packetPushed) - count(packetPopped) - count(packetRemoved) - count(packetDropped)"
attr title "queue length, vector"
vector 29 Scenario.node[0].wlan[0].mac.dcf.channelAccess.contention backoffPeriodGenerated:vector ETV
attr interpolationmode none
attr title "backoff periods, vector"
vector 30 Scenario.node[0].wlan[0].mac.dcf.channelAccess.contention backoffActive:vector ETV
attr interpolationmode sample-hold
attr source count(backoffStarted)-count(backoffStopped)
attr title "backoff active, vector"
vector 31 Scenario.node[0].wlan[0].mac.dcf.channelAccess.pendingQueue packetPopped:vector(packetBytes) ETV
attr interpolationmode none
attr title "packet popped, vector(packetBytes)"
vector 32 Scenario.node[0].wlan[0].mac.dcf.channelAccess.pendingQueue queueingTime:vector ETV
attr interpolationmode none
attr source queueingTime(packetPopped)
attr title "queueing times, vector"
attr unit s
vector 33 Scenario.node[0].wlan[0].mac.dcf.channelAccess.inProgressFrames queueLength:vector ETV
attr interpolationmode sample-hold
attr source "count(packetEnqueued) - count(packetDequeued)"
attr title "queue length, vector"
vector 34 Scenario.node[0].wlan[0].mac.dcf datarateSelected:vector ETV
attr interpolationmode none
attr title "datarates selected, vector"
vector 35 Scenario.node[0].wlan[0].mac packetSentToLower:vector(packetBytes) ETV
attr interpolationmode none
attr title "packets sent to lower layer, vector(packetBytes)"
vector 36 Scenario.node[0].wlan[0].mac.dcf frameSequenceActive:vector ETV
attr interpolationmode sample-hold
attr source count(frameSequenceStarted)-count(frameSequenceFinished)
attr title "frame sequence active, vector"
vector 37 Scenario.node[0].wlan[0].radio transmissionState:vector ETV
attr interpolationmode sample-hold
attr source transmissionStateChanged
attr title "Radio transmission state, vector"
vector 38 Scenario.node[0].wlan[0].mac.dcf packetSentToPeer:vector(packetBytes) ETV
attr interpolationmode none
attr title "packets sent, vector(packetBytes)"
vector 39 Scenario.node[0].wlan[0].mac.dcf packetSentToPeerMulticast:vector(packetBytes) ETV
attr interpolationmode none
attr source ieee80211Multicast(packetSentToPeer)
attr title "packets sent: multicast, vector(packetBytes)"
vector 40 Scenario.node[0].wlan[0].mac.dcf packetSentToPeerWithoutRetry:vector(packetBytes) ETV
attr interpolationmode none
attr source ieee80211NotRetry(packetSentToPeer)
attr title "packets sent: without retry, vector(packetBytes)"
vector 41 Scenario.node[0].wlan[0].mac.dcf.channelAccess.inProgressFrames queueingTime:vector ETV
attr interpolationmode none
attr source queueingTime(packetDequeued)
attr title "queueing times, vector"
vector 42 Scenario.node[1].wlan[0].mac packetReceivedFromLower:vector(packetBytes) ETV
attr interpolationmode none
attr title "packets received from lower layer, vector(packetBytes)"
vector 43 Scenario.node[1].wlan[0].mac.dcf packetReceivedFromPeer:vector(packetBytes) ETV
attr interpolationmode none
attr title "packets received, vector(packetBytes)"
vector 44 Scenario.node[1].wlan[0].mac.dcf packetReceivedFromPeerMulticast:vector(packetBytes) ETV
attr interpolationmode none
attr source ieee80211Multicast(packetReceivedFromPeer)
attr title "packets received: multicast, vector(packetBytes)"
vector 45 Scenario.node[1].wlan[0].mac.dcf packetReceivedFromPeerWithoutRetry:vector(packetBytes) ETV
attr interpolationmode none
attr source ieee80211NotRetry(packetReceivedFromPeer)
attr title "packets received: without retry, vector(packetBytes)"
vector 46 Scenario.node[1].wlan[0].mac packetSentToUpper:vector(packetBytes) ETV
attr interpolationmode none
attr title "packets sent to upper layer, vector(packetBytes)"
vector 47 Scenario.node[1].ipv4.ip totalPacketsReceieved:vector(packetBytes) ETV
attr interpolationmode none
attr source messageReceived
attr title "packets received from network, vector(packetBytes)"
vector 48 Scenario.node[1].ipv4.ip attackerPacketDropped:vector(packetBytes) ETV
attr interpolationmode none
attr source messageDropped
attr title "packets dropped while attacking, vector(packetBytes)"
vector 49 Scenario.node[2].wlan[0].mac packetReceivedFromLower:vector(packetBytes) ETV
attr interpolationmode none
attr title "packets received from lower layer, vector(packetBytes)"
vector 50 Scenario.node[2].wlan[0].mac.dcf packetReceivedFromPeer:vector(packetBytes) ETV
attr interpolationmode none
attr title "packets received, vector(packetBytes)"
vector 51 Scenario.node[2].wlan[0].mac.dcf packetReceivedFromPeerMulticast:vector(packetBytes) ETV
attr interpolationmode none
attr source ieee80211Multicast(packetReceivedFromPeer)
attr title "packets received: multicast, vector(packetBytes)"
vector 52 Scenario.node[2].wlan[0].mac.dcf packetReceivedFromPeerWithoutRetry:vector(packetBytes) ETV
attr interpolationmode none
attr source ieee80211NotRetry(packetReceivedFromPeer)
attr title "packets received: without retry, vector(packetBytes)"
vector 53 Scenario.node[2].wlan[0].mac packetSentToUpper:vector(packetBytes) ETV
attr interpolationmode none
attr title "packets sent to upper layer, vector(packetBytes)"
vector 54 Scenario.node[2].ipv4.ip totalPacketsReceieved:vector(packetBytes) ETV
attr interpolationmode none
attr source messageReceived
attr title "packets received from network, vector(packetBytes)"
vector 55 Scenario.node[2].ipv4.ip attackerPacketDropped:vector(packetBytes) ETV
attr interpolationmode none
attr source messageDropped
attr title "packets dropped while attacking, vector(packetBytes)"
vector 56 Scenario.node[3].wlan[0].mac packetReceivedFromLower:vector(packetBytes) ETV
attr interpolationmode none
attr title "packets received from lower layer, vector(packetBytes)"
vector 57 Scenario.node[3].wlan[0].mac.dcf packetReceivedFromPeer:vector(packetBytes) ETV
attr interpolationmode none
attr title "packets received, vector(packetBytes)"
vector 58 Scenario.node[3].wlan[0].mac.dcf packetReceivedFromPeerMulticast:vector(packetBytes) ETV
attr interpolationmode none
attr source ieee80211Multicast(packetReceivedFromPeer)
attr title "packets received: multicast, vector(packetBytes)"
vector 59 Scenario.node[3].wlan[0].mac.dcf packetReceivedFromPeerWithoutRetry:vector(packetBytes) ETV
attr interpolationmode none
attr source ieee80211NotRetry(packetReceivedFromPeer)
attr title "packets received: without retry, vector(packetBytes)"
vector 60 Scenario.node[3].wlan[0].mac packetSentToUpper:vector(packetBytes) ETV
attr interpolationmode none
attr title "packets sent to upper layer, vector(packetBytes)"
vector 61 Scenario.node[3].ipv4.ip totalPacketsReceieved:vector(packetBytes) ETV
attr interpolationmode none
attr source messageReceived
attr title "packets received from network, vector(packetBytes)"
vector 62 Scenario.node[3].ipv4.ip attackerPacketDropped:vector(packetBytes) ETV
attr interpolationmode none
attr source messageDropped
attr title "packets dropped while attacking, vector(packetBytes)"
vector 63 Scenario.node[4].wlan[0].mac packetReceivedFromLower:vector(packetBytes) ETV
attr interpolationmode none
attr title "packets received from lower layer, vector(packetBytes)"
vector 64 Scenario.node[4].wlan[0].mac.dcf packetReceivedFromPeer:vector(packetBytes) ETV
attr interpolationmode none
attr title "packets received, vector(packetBytes)"
vector 65 Scenario.node[4].wlan[0].mac.dcf packetReceivedFromPeerMulticast:vector(packetBytes) ETV
attr interpolationmode none
attr source ieee80211Multicast(packetReceivedFromPeer)
attr title "packets received: multicast, vector(packetBytes)"
vector 66 Scenario.node[4].wlan[0].mac.dcf packetReceivedFromPeerWithoutRetry:vector(packetBytes) ETV
attr interpolationmode none
attr source ieee80211NotRetry(packetReceivedFromPeer)
attr title "packets received: without retry, vector(packetBytes)"
vector 67 Scenario.node[4].wlan[0].mac packetSentToUpper:vector(packetBytes) ETV
attr interpolationmode none
attr title "packets sent to upper layer, vector(packetBytes)"
vector 68 Scenario.node[4].ipv4.ip totalPacketsReceieved:vector(packetBytes) ETV
attr interpolationmode none
attr source messageReceived
attr title "packets received from network, vector(packetBytes)"
vector 69 Scenario.node[4].ipv4.ip attackerPacketDropped:vector(packetBytes) ETV
attr interpolationmode none
attr source messageDropped
attr title "packets dropped while attacking, vector(packetBytes)"
vector 70 Scenario.node[0].app[0] throughput:vector ETV
attr source throughput(packetReceived)
attr title "throughput, vector"
attr unit bps
vector 71 Scenario.node[1].app[0] throughput:vector ETV
attr source throughput(packetReceived)
attr title "throughput, vector"
attr unit bps
vector 72 Scenario.node[2].app[0] throughput:vector ETV
attr source throughput(packetReceived)
attr title "throughput, vector"
attr unit bps
vector 73 Scenario.node[3].app[0] throughput:vector ETV
attr source throughput(packetReceived)
attr title "throughput, vector"
attr unit bps
vector 74 Scenario.node[4].app[0] throughput:vector ETV
attr source throughput(packetReceived)
attr title "throughput, vector"
attr unit bps
0	12	1.1	0
0	12	1.1	0
0	12	1.1	2
0	226	20	3
0	233	20.000152	2
1	12	1.1	3
2	12	1.1	1
2	226	20	0
2	233	20.000152	1
3	12	1.1	15
4	25	2.1	0
4	25	2.1	0
4	25	2.1	2
5	25	2.1	3
6	25	2.1	1
6	228	20.000000258461	3
6	234	20.000152258461	1
7	25	2.1	15
8	38	3.1	0
8	38	3.1	0
8	38	3.1	2
9	38	3.1	3
10	38	3.1	1
10	229	20.000000353281	3
10	238	20.000152353281	1
11	38	3.1	15
12	61	5.1	0
12	61	5.1	0
12	61	5.1	2
13	61	5.1	3
14	61	5.1	1
14	230	20.000000511809	3
14	242	20.000152511809	1
15	61	5.1	15
16	74	6.1	0
16	74	6.1	0
16	74	6.1	2
17	74	6.1	3
18	74	6.1	1
18	231	20.000000615437	3
18	246	20.000152615437	1
19	74	6.1	15
20	216	20	100
21	218	20	108
22	220	20	128
23	220	20	128
24	222	20	128
25	222	20	128
26	223	20	130
27	223	20	158
28	223	20	1
28	225	20	0
29	223	20	8
30	223	20	1
30	224	20	0
31	225	20	158
32	225	20	0
33	225	20	1
33	232	20.000152	0
34	225	20	12000000
35	225	20	158
36	225	20	1
36	232	20.000152	0
37	226	20	1
37	227	20	2
37	232	20.000152	1
37	233	20.000152	0
38	232	20.000152	158
39	232	20.000152	158
40	232	20.000152	158
41	232	20.000152	0.000152
42	235	20.000152258461	158
43	235	20.000152258461	158
44	235	20.000152258461	158
45	235	20.000152258461	158
46	235	20.000152258461	130
47	237	20.000152258461	128
48	237	20.000152258461	128
49	239	20.000152353281	158
50	239	20.000152353281	158
51	239	20.000152353281	158
52	239	20.000152353281	158
53	239	20.000152353281	130
54	241	20.000152353281	128
55	241	20.000152353281	128
56	243	20.000152511809	158
57	243	20.000152511809	158
58	243	20.000152511809	158
59	243	20.000152511809	158
60	243	20.000152511809	130
61	245	20.000152511809	128
62	245	20.000152511809	128
63	247	20.000152615437	158
64	247	20.000152615437	158
65	247	20.000152615437	158
66	247	20.000152615437	158
67	247	20.000152615437	130
68	249	20.000152615437	128
69	249	20.000152615437	128
70	652	0.1	0
70	652	0.2	0
70	652	0.3	0
70	652	0.4	0
70	652	0.5	0
70	652	0.6	0
70	652	0.7	0
70	652	0.8	0
70	652	0.9	0
70	652	1	0
70	652	1.1	0
70	652	1.2	0
70	652	1.3	0
70	652	1.4	0
70	652	1.5	0
70	652	1.6	0
70	652	1.7	0
70	652	1.8	0
70	652	1.9	0
70	652	2	0
70	652	2.1	0
70	652	2.2	0
70	652	2.3	0
70	652	2.4	0
70	652	2.5	0
70	652	2.6	0
70	652	2.7	0
70	652	2.8	0
70	652	2.9	0
70	652	3	0
70	652	3.1	0
70	652	3.2	0
70	652	3.3	0
70	652	3.4	0
70	652	3.5	0
70	652	3.6	0
70	652	3.7	0
70	652	3.8	0
70	652	3.9	0
70	652	4	0
70	652	4.1	0
70	652	4.2	0
70	652	4.3	0
70	652	4.4	0
70	652	4.5	0
70	652	4.6	0
70	652	4.7	0
70	652	4.8	0
70	652	4.9	0
70	652	5	0
70	652	5.1	0
70	652	5.2	0
70	652	5.3	0
70	652	5.4	0
70	652	5.5	0
70	652	5.6	0
70	652	5.7	0
70	652	5.8	0
70	652	5.9	0
70	652	6	0
70	652	6.1	0
70	652	6.2	0
70	652	6.3	0
70	652	6.4	0
70	652	6.5	0
70	652	6.6	0
70	652	6.7	0
70	652	6.8	0
70	652	6.9	0
70	652	7	0
70	652	7.1	0
70	652	7.2	0
70	652	7.3	0
70	652	7.4	0
70	652	7.5	0
70	652	7.6	0
70	652	7.7	0
70	652	7.8	0
70	652	7.9	0
70	652	8	0
70	652	8.1	0
70	652	8.2	0
70	652	8.3	0
70	652	8.4	0
70	652	8.5	0
70	652	8.6	0
70	652	8.7	0
70	652	8.8	0
70	652	8.9	0
70	652	9	0
70	652	9.1	0
70	652	9.2	0
70	652	9.3	0
70	652	9.4	0
70	652	9.5	0
70	652	9.6	0
70	652	9.7	0
70	652	9.8	0
70	652	9.9	0
70	652	10	0
70	652	10.1	0
70	652	10.2	0
70	652	10.3	0
70	652	10.4	0
70	652	10.5	0
70	652	10.6	0
70	652	10.7	0
70	652	10.8	0
70	652	10.9	0
70	652	11	0
70	652	11.1	0
70	652	11.2	0
70	652	11.3	0
70	652	11.4	0
70	652	11.5	0
70	652	11.6	0
70	652	11.7	0
70	652	11.8	0
70	652	11.9	0
70	652	12	0
70	652	12.1	0
70	652	12.2	0
70	652	12.3	0
70	652	12.4	0
70	652	12.5	0
70	652	12.6	0
70	652	12.7	0
70	652	12.8	0
70	652	12.9	0
70	652	13	0
70	652	13.1	0
70	652	13.2	0
70	652	13.3	0
70	652	13.4	0
70	652	13.5	0
70	652	13.6	0
70	652	13.7	0
70	652	13.8	0
70	652	13.9	0
70	652	14	0
70	652	14.1	0
70	652	14.2	0
70	652	14.3	0
70	652	14.4	0
70	652	14.5	0
70	652	14.6	0
70	652	14.7	0
70	652	14.8	0
70	652	14.9	0
70	652	15	0
70	652	15.1	0
70	652	15.2	0
70	652	15.3	0
70	652	15.4	0
70	652	15.5	0
70	652	15.6	0
70	652	15.7	0
70	652	15.8	0
70	652	15.9	0
70	652	16	0
70	652	16.1	0
70	652	16.2	0
70	652	16.3	0
70	652	16.4	0
70	652	16.5	0
70	652	16.6	0
70	652	16.7	0
70	652	16.8	0
70	652	16.9	0
70	652	17	0
70	652	17.1	0
70	652	17.2	0
70	652	17.3	0
70	652	17.4	0
70	652	17.5	0
70	652	17.6	0
70	652	17.7	0
70	652	17.8	0
70	652	17.9	0
70	652	18	0
70	652	18.1	0
70	652	18.2	0
70	652	18.3	0
70	652	18.4	0
70	652	18.5	0
70	652	18.6	0
70	652	18.7	0
70	652	18.8	0
70	652	18.9	0
70	652	19	0
70	652	19.1	0
70	652	19.2	0
70	652	19.3	0
70	652	19.4	0
70	652	19.5	0
70	652	19.6	0
70	652	19.7	0
70	652	19.8	0
70	652	19.9	0
70	652	20	0
70	652	20.1	0
70	652	20.2	0
70	652	20.3	0
70	652	20.4	0
70	652	20.5	0
70	652	20.6	0
70	652	20.7	0
70	652	20.8	0
70	652	20.9	0
70	652	21	0
70	652	21.1	0
70	652	21.2	0
70	652	21.3	0
70	652	21.4	0
70	652	21.5	0
70	652	21.6	0
70	652	21.7	0
70	652	21.8	0
70	652	21.9	0
70	652	22	0
70	652	22.1	0
70	652	22.2	0
70	652	22.3	0
70	652	22.4	0
70	652	22.5	0
70	652	22.6	0
70	652	22.7	0
70	652	22.8	0
70	652	22.9	0
70	652	23	0
70	652	23.1	0
70	652	23.2	0
70	652	23.3	0
70	652	23.4	0
70	652	23.5	0
70	652	23.6	0
70	652	23.7	0
70	652	23.8	0
70	652	23.9	0
70	652	24	0
70	652	24.1	0
70	652	24.2	0
70	652	24.3	0
70	652	24.4	0
70	652	24.5	0
70	652	24.6	0
70	652	24.7	0
70	652	24.8	0
70	652	24.9	0
70	652	25	0
70	652	25.1	0
70	652	25.2	0
70	652	25.3	0
70	652	25.4	0
70	652	25.5	0
70	652	25.6	0
70	652	25.7	0
70	652	25.8	0
70	652	25.9	0
70	652	26	0
70	652	26.1	0
70	652	26.2	0
70	652	26.3	0
70	652	26.4	0
70	652	26.5	0
70	652	26.6	0
70	652	26.7	0
70	652	26.8	0
70	652	26.9	0
70	652	27	0
70	652	27.1	0
70	652	27.2	0
70	652	27.3	0
70	652	27.4	0
70	652	27.5	0
70	652	27.6	0
70	652	27.7	0
70	652	27.8	0
70	652	27.9	0
70	652	28	0
70	652	28.1	0
70	652	28.2	0
70	652	28.3	0
70	652	28.4	0
70	652	28.5	0
70	652	28.6	0
70	652	28.7	0
70	652	28.8	0
70	652	28.9	0
70	652	29	0
70	652	29.1	0
70	652	29.2	0
70	652	29.3	0
70	652	29.4	0
70	652	29.5	0
70	652	29.6	0
70	652	29.7	0
70	652	29.8	0
70	652	29.9	0
70	652	30	0
70	652	30.1	0
70	652	30.2	0
70	652	30.3	0
70	652	30.4	0
70	652	30.5	0
70	652	30.6	0
70	652	30.7	0
70	652	30.8	0
70	652	30.9	0
70	652	31	0
70	652	31.1	0
70	652	31.2	0
70	652	31.3	0
70	652	31.4	0
70	652	31.5	0
70	652	31.6	0
70	652	31.7	0
70	652	31.8	0
70	652	31.9	0
70	652	32	0
70	652	32.1	0
70	652	32.2	0
70	652	32.3	0
70	652	32.4	0
70	652	32.5	0
70	652	32.6	0
70	652	32.7	0
70	652	32.8	0
70	652	32.9	0
70	652	33	0
70	652	33.1	0
70	652	33.2	0
70	652	33.3	0
70	652	33.4	0
70	652	33.5	0
70	652	33.6	0
70	652	33.7	0
70	652	33.8	0
70	652	33.9	0
70	652	34	0
70	652	34.1	0
70	652	34.2	0
70	652	34.3	0
70	652	34.4	0
70	652	34.5	0
70	652	34.6	0
70	652	34.7	0
70	652	34.8	0
70	652	34.9	0
70	652	35	0
70	652	35.1	0
70	652	35.2	0
70	652	35.3	0
70	652	35.4	0
70	652	35.5	0
70	652	35.6	0
70	652	35.7	0
70	652	35.8	0
70	652	35.9	0
70	652	36	0
70	652	36.1	0
70	652	36.2	0
70	652	36.3	0
70	652	36.4	0
70	652	36.5	0
70	652	36.6	0
70	652	36.7	0
70	652	36.8	0
70	652	36.9	0
70	652	37	0
70	652	37.1	0
70	652	37.2	0
70	652	37.3	0
70	652	37.4	0
70	652	37.5	0
70	652	37.6	0
70	652	37.7	0
70	652	37.8	0
70	652	37.9	0
70	652	38	0
70	652	38.1	0
70	652	38.2	0
70	652	38.3	0
70	652	38.4	0
70	652	38.5	0
70	652	38.6	0
70	652	38.7	0
70	652	38.8	0
70	652	38.9	0
70	652	39	0
70	652	39.1	0
70	652	39.2	0
70	652	39.3	0
70	652	39.4	0
70	652	39.5	0
70	652	39.6	0
70	652	39.7	0
70	652	39.8	0
70	652	39.9	0
70	652	40	0
70	652	40.1	0
70	652	40.2	0
70	652	40.3	0
70	652	40.4	0
70	652	40.5	0
70	652	40.6	0
70	652	40.7	0
70	652	40.8	0
70	652	40.9	0
70	652	41	0
70	652	41.1	0
70	652	41.2	0
70	652	41.3	0
70	652	41.4	0
70	652	41.5	0
70	652	41.6	0
70	652	41.7	0
70	652	41.8	0
70	652	41.9	0
70	652	42	0
70	652	42.1	0
70	652	42.2	0
70	652	42.3	0
70	652	42.4	0
70	652	42.5	0
70	652	42.6	0
70	652	42.7	0
70	652	42.8	0
70	652	42.9	0
70	652	43	0
70	652	43.1	0
70	652	43.2	0
70	652	43.3	0
70	652	43.4	0
70	652	43.5	0
70	652	43.6	0
70	652	43.7	0
70	652	43.8	0
70	652	43.9	0
70	652	44	0
70	652	44.1	0
70	652	44.2	0
70	652	44.3	0
70	652	44.4	0
70	652	44.5	0
70	652	44.6	0
70	652	44.7	0
70	652	44.8	0
70	652	44.9	0
70	652	45	0
70	652	45.1	0
70	652	45.2	0
70	652	45.3	0
70	652	45.4	0
70	652	45.5	0
70	652	45.6	0
70	652	45.7	0
70	652	45.8	0
70	652	45.9	0
70	652	46	0
70	652	46.1	0
70	652	46.2	0
70	652	46.3	0
70	652	46.4	0
70	652	46.5	0
70	652	46.6	0
70	652	46.7	0
70	652	46.8	0
70	652	46.9	0
70	652	47	0
70	652	47.1	0
70	652	47.2	0
70	652	47.3	0
70	652	47.4	0
70	652	47.5	0
70	652	47.6	0
70	652	47.7	0
70	652	47.8	0
70	652	47.9	0
70	652	48	0
70	652	48.1	0
70	652	48.2	0
70	652	48.3	0
70	652	48.4	0
70	652	48.5	0
70	652	48.6	0
70	652	48.7	0
70	652	48.8	0
70	652	48.9	0
70	652	49	0
70	652	49.1	0
70	652	49.2	0
70	652	49.3	0
70	652	49.4	0
70	652	49.5	0
70	652	49.6	0
70	652	49.7	0
70	652	49.8	0
70	652	49.9	0
70	652	50	0
70	652	50.1	0
70	652	50.2	0
70	652	50.3	0
70	652	50.4	0
70	652	50.5	0
70	652	50.6	0
70	652	50.7	0
70	652	50.8	0
70	652	50.9	0
70	652	51	0
70	652	51.1	0
70	652	51.2	0
70	652	51.3	0
70	652	51.4	0
70	652	51.5	0
70	652	51.6	0
70	652	51.7	0
70	652	51.8	0
70	652	51.9	0
70	652	52	0
70	652	52.1	0
70	652	52.2	0
70	652	52.3	0
70	652	52.4	0
70	652	52.5	0
70	652	52.6	0
70	652	52.7	0
70	652	52.8	0
70	652	52.9	0
70	652	53	0
70	652	53.1	0
70	652	53.2	0
70	652	53.3	0
70	652	53.4	0
70	652	53.5	0
70	652	53.6	0
70	652	53.7	0
70	652	53.8	0
70	652	53.9	0
70	652	54	0
70	652	54.1	0
70	652	54.2	0
70	652	54.3	0
70	652	54.4	0
70	652	54.5	0
70	652	54.6	0
70	652	54.7	0
70	652	54.8	0
70	652	54.9	0
70	652	55	0
70	652	55.1	0
70	652	55.2	0
70	652	55.3	0
70	652	55.4	0
70	652	55.5	0
70	652	55.6	0
70	652	55.7	0
70	652	55.8	0
70	652	55.9	0
70	652	56	0
70	652	56.1	0
70	652	56.2	0
70	652	56.3	0
70	652	56.4	0
70	652	56.5	0
70	652	56.6	0
70	652	56.7	0
70	652	56.8	0
70	652	56.9	0
70	652	57	0
70	652	57.1	0
70	652	57.2	0
70	652	57.3	0
70	652	57.4	0
70	652	57.5	0
70	652	57.6	0
70	652	57.7	0
70	652	57.8	0
70	652	57.9	0
70	652	58	0
70	652	58.1	0
70	652	58.2	0
70	652	58.3	0
70	652	58.4	0
70	652	58.5	0
70	652	58.6	0
70	652	58.7	0
70	652	58.8	0
70	652	58.9	0
70	652	59	0
70	652	59.1	0
70	652	59.2	0
70	652	59.3	0
70	652	59.4	0
70	652	59.5	0
70	652	59.6	0
70	652	59.7	0
70	652	59.8	0
70	652	59.9	0
70	652	60	0
71	652	0.1	0
71	652	0.2	0
71	652	0.3	0
71	652	0.4	0
71	652	0.5	0
71	652	0.6	0
71	652	0.7	0
71	652	0.8	0
71	652	0.9	0
71	652	1	0
71	652	1.1	0
71	652	1.2	0
71	652	1.3	0
71	652	1.4	0
71	652	1.5	0
71	652	1.6	0
71	652	1.7	0
71	652	1.8	0
71	652	1.9	0
71	652	2	0
71	652	2.1	0
71	652	2.2	0
71	652	2.3	0
71	652	2.4	0
71	652	2.5	0
71	652	2.6	0
71	652	2.7	0
71	652	2.8	0
71	652	2.9	0
71	652	3	0
71	652	3.1	0
71	652	3.2	0
71	652	3.3	0
71	652	3.4	0
71	652	3.5	0
71	652	3.6	0
71	652	3.7	0
71	652	3.8	0
71	652	3.9	0
71	652	4	0
71	652	4.1	0
71	652	4.2	0
71	652	4.3	0
71	652	4.4	0
71	652	4.5	0
71	652	4.6	0
71	652	4.7	0
71	652	4.8	0
71	652	4.9	0
71	652	5	0
71	652	5.1	0
71	652	5.2	0
71	652	5.3	0
71	652	5.4	0
71	652	5.5	0
71	652	5.6	0
71	652	5.7	0
71	652	5.8	0
71	652	5.9	0
71	652	6	0
71	652	6.1	0
71	652	6.2	0
71	652	6.3	0
71	652	6.4	0
71	652	6.5	0
71	652	6.6	0
71	652	6.7	0
71	652	6.8	0
71	652	6.9	0
71	652	7	0
71	652	7.1	0
71	652	7.2	0
71	652	7.3	0
71	652	7.4	0
71	652	7.5	0
71	652	7.6	0
71	652	7.7	0
71	652	7.8	0
71	652	7.9	0
71	652	8	0
71	652	8.1	0
71	652	8.2	0
71	652	8.3	0
71	652	8.4	0
71	652	8.5	0
71	652	8.6	0
71	652	8.7	0
71	652	8.8	0
71	652	8.9	0
71	652	9	0
71	652	9.1	0
71	652	9.2	0
71	652	9.3	0
71	652	9.4	0
71	652	9.5	0
71	652	9.6	0
71	652	9.7	0
71	652	9.8	0
71	652	9.9	0
71	652	10	0
71	652	10.1	0
71	652	10.2	0
71	652	10.3	0
71	652	10.4	0
71	652	10.5	0
71	652	10.6	0
71	652	10.7	0
71	652	10.8	0
71	652	10.9	0
71	652	11	0
71	652	11.1	0
71	652	11.2	0
71	652	11.3	0
71	652	11.4	0
71	652	11.5	0
71	652	11.6	0
71	652	11.7	0
71	652	11.8	0
71	652	11.9	0
71	652	12	0
71	652	12.1	0
71	652	12.2	0
71	652	12.3	0
71	652	12.4	0
71	652	12.5	0
71	652	12.6	0
71	652	12.7	0
71	652	12.8	0
71	652	12.9	0
71	652	13	0
71	652	13.1	0
71	652	13.2	0
71	652	13.3	0
71	652	13.4	0
71	652	13.5	0
71	652	13.6	0
71	652	13.7	0
71	652	13.8	0
71	652	13.9	0
71	652	14	0
71	652	14.1	0
71	652	14.2	0
71	652	14.3	0
71	652	14.4	0
71	652	14.5	0
71	652	14.6	0
71	652	14.7	0
71	652	14.8	0
71	652	14.9	0
71	652	15	0
71	652	15.1	0
71	652	15.2	0
71	652	15.3	0
71	652	15.4	0
71	652	15.5	0
71	652	15.6	0
71	652	15.7	0
71	652	15.8	0
71	652	15.9	0
71	652	16	0
71	652	16.1	0
71	652	16.2	0
71	652	16.3	0
71	652	16.4	0
71	652	16.5	0
71	652	16.6	0
71	652	16.7	0
71	652	16.8	0
71	652	16.9	0
71	652	17	0
71	652	17.1	0
71	652	17.2	0
71	652	17.3	0
71	652	17.4	0
71	652	17.5	0
71	652	17.6	0
71	652	17.7	0
71	652	17.8	0
71	652	17.9	0
71	652	18	0
71	652	18.1	0
71	652	18.2	0
71	652	18.3	0
71	652	18.4	0
71	652	18.5	0
71	652	18.6	0
71	652	18.7	0
71	652	18.8	0
71	652	18.9	0
71	652	19	0
71	652	19.1	0
71	652	19.2	0
71	652	19.3	0
71	652	19.4	0
71	652	19.5	0
71	652	19.6	0
71	652	19.7	0
71	652	19.8	0
71	652	19.9	0
71	652	20	0
71	652	20.1	0
71	652	20.2	0
71	652	20.3	0
71	652	20.4	0
71	652	20.5	0
71	652	20.6	0
71	652	20.7	0
71	652	20.8	0
71	652	20.9	0
71	652	21	0
71	652	21.1	0
71	652	21.2	0
71	652	21.3	0
71	652	21.4	0
71	652	21.5	0
71	652	21.6	0
71	652	21.7	0
71	652	21.8	0
71	652	21.9	0
71	652	22	0
71	652	22.1	0
71	652	22.2	0
71	652	22.3	0
71	652	22.4	0
71	652	22.5	0
71	652	22.6	0
71	652	22.7	0
71	652	22.8	0
71	652	22.9	0
71	652	23	0
71	652	23.1	0
71	652	23.2	0
71	652	23.3	0
71	652	23.4	0
71	652	23.5	0
71	652	23.6	0
71	652	23.7	0
71	652	23.8	0
71	652	23.9	0
71	652	24	0
71	652	24.1	0
71	652	24.2	0
71	652	24.3	0
71	652	24.4	0
71	652	24.5	0
71	652	24.6	0
71	652	24.7	0
71	652	24.8	0
71	652	24.9	0
71	652	25	0
71	652	25.1	0
71	652	25.2	0
71	652	25.3	0
71	652	25.4	0
71	652	25.5	0
71	652	25.6	0
71	652	25.7	0
71	652	25.8	0
71	652	25.9	0
71	652	26	0
71	652	26.1	0
71	652	26.2	0
71	652	26.3	0
71	652	26.4	0
71	652	26.5	0
71	652	26.6	0
71	652	26.7	0
71	652	26.8	0
71	652	26.9	0
71	652	27	0
71	652	27.1	0
71	652	27.2	0
71	652	27.3	0
71	652	27.4	0
71	652	27.5	0
71	652	27.6	0
71	652	27.7	0
71	652	27.8	0
71	652	27.9	0
71	652	28	0
71	652	28.1	0
71	652	28.2	0
71	652	28.3	0
71	652	28.4	0
71	652	28.5	0
71	652	28.6	0
71	652	28.7	0
71	652	28.8	0
71	652	28.9	0
71	652	29	0
71	652	29.1	0
71	652	29.2	0
71	652	29.3	0
71	652	29.4	0
71	652	29.5	0
71	652	29.6	0
71	652	29.7	0
71	652	29.8	0
71	652	29.9	0
71	652	30	0
71	652	30.1	0
71	652	30.2	0
71	652	30.3	0
71	652	30.4	0
71	652	30.5	0
71	652	30.6	0
71	652	30.7	0
71	652	30.8	0
71	652	30.9	0
71	652	31	0
71	652	31.1	0
71	652	31.2	0
71	652	31.3	0
71	652	31.4	0
71	652	31.5	0
71	652	31.6	0
71	652	31.7	0
71	652	31.8	0
71	652	31.9	0
71	652	32	0
71	652	32.1	0
71	652	32.2	0
71	652	32.3	0
71	652	32.4	0
71	652	32.5	0
71	652	32.6	0
71	652	32.7	0
71	652	32.8	0
71	652	32.9	0
71	652	33	0
71	652	33.1	0
71	652	33.2	0
71	652	33.3	0
71	652	33.4	0
71	652	33.5	0
71	652	33.6	0
71	652	33.7	0
71	652	33.8	0
71	652	33.9	0
71	652	34	0
71	652	34.1	0
71	652	34.2	0
71	652	34.3	0
71	652	34.4	0
71	652	34.5	0
71	652	34.6	0
71	652	34.7	0
71	652	34.8	0
71	652	34.9	0
71	652	35	0
71	652	35.1	0
71	652	35.2	0
71	652	35.3	0
71	652	35.4	0
71	652	35.5	0
71	652	35.6	0
71	652	35.7	0
71	652	35.8	0
71	652	35.9	0
71	652	36	0
71	652	36.1	0
71	652	36.2	0
71	652	36.3	0
71	652	36.4	0
71	652	36.5	0
71	652	36.6	0
71	652	36.7	0
71	652	36.8	0
71	652	36.9	0
71	652	37	0
71	652	37.1	0
71	652	37.2	0
71	652	37.3	0
71	652	37.4	0
71	652	37.5	0
71	652	37.6	0
71	652	37.7	0
71	652	37.8	0
71	652	37.9	0
71	652	38	0
71	652	38.1	0
71	652	38.2	0
71	652	38.3	0
71	652	38.4	0
71	652	38.5	0
71	652	38.6	0
71	652	38.7	0
71	652	38.8	0
71	652	38.9	0
71	652	39	0
71	652	39.1	0
71	652	39.2	0
71	652	39.3	0
71	652	39.4	0
71	652	39.5	0
71	652	39.6	0
71	652	39.7	0
71	652	39.8	0
71	652	39.9	0
71	652	40	0
71	652	40.1	0
71	652	40.2	0
71	652	40.3	0
71	652	40.4	0
71	652	40.5	0
71	652	40.6	0
71	652	40.7	0
71	652	40.8	0
71	652	40.9	0
71	652	41	0
71	652	41.1	0
71	652	41.2	0
71	652	41.3	0
71	652	41.4	0
71	652	41.5	0
71	652	41.6	0
71	652	41.7	0
71	652	41.8	0
71	652	41.9	0
71	652	42	0
71	652	42.1	0
71	652	42.2	0
71	652	42.3	0
71	652	42.4	0
71	652	42.5	0
71	652	42.6	0
71	652	42.7	0
71	652	42.8	0
71	652	42.9	0
71	652	43	0
71	652	43.1	0
71	652	43.2	0
71	652	43.3	0
71	652	43.4	0
71	652	43.5	0
71	652	43.6	0
71	652	43.7	0
71	652	43.8	0
71	652	43.9	0
71	652	44	0
71	652	44.1	0
71	652	44.2	0
71	652	44.3	0
71	652	44.4	0
71	652	44.5	0
71	652	44.6	0
71	652	44.7	0
71	652	44.8	0
71	652	44.9	0
71	652	45	0
71	652	45.1	0
71	652	45.2	0
71	652	45.3	0
71	652	45.4	0
71	652	45.5	0
71	652	45.6	0
71	652	45.7	0
71	652	45.8	0
71	652	45.9	0
71	652	46	0
71	652	46.1	0
71	652	46.2	0
71	652	46.3	0
71	652	46.4	0
71	652	46.5	0
71	652	46.6	0
71	652	46.7	0
71	652	46.8	0
71	652	46.9	0
71	652	47	0
71	652	47.1	0
71	652	47.2	0
71	652	47.3	0
71	652	47.4	0
71	652	47.5	0
71	652	47.6	0
71	652	47.7	0
71	652	47.8	0
71	652	47.9	0
71	652	48	0
71	652	48.1	0
71	652	48.2	0
71	652	48.3	0
71	652	48.4	0
71	652	48.5	0
71	652	48.6	0
71	652	48.7	0
71	652	48.8	0
71	652	48.9	0
71	652	49	0
71	652	49.1	0
71	652	49.2	0
71	652	49.3	0
71	652	49.4	0
71	652	49.5	0
71	652	49.6	0
71	652	49.7	0
71	652	49.8	0
71	652	49.9	0
71	652	50	0
71	652	50.1	0
71	652	50.2	0
71	652	50.3	0
71	652	50.4	0
71	652	50.5	0
71	652	50.6	0
71	652	50.7	0
71	652	50.8	0
71	652	50.9	0
71	652	51	0
71	652	51.1	0
71	652	51.2	0
71	652	51.3	0
71	652	51.4	0
71	652	51.5	0
71	652	51.6	0
71	652	51.7	0
71	652	51.8	0
71	652	51.9	0
71	652	52	0
71	652	52.1	0
71	652	52.2	0
71	652	52.3	0
71	652	52.4	0
71	652	52.5	0
71	652	52.6	0
71	652	52.7	0
71	652	52.8	0
71	652	52.9	0
71	652	53	0
71	652	53.1	0
71	652	53.2	0
71	652	53.3	0
71	652	53.4	0
71	652	53.5	0
71	652	53.6	0
71	652	53.7	0
71	652	53.8	0
71	652	53.9	0
71	652	54	0
71	652	54.1	0
71	652	54.2	0
71	652	54.3	0
71	652	54.4	0
71	652	54.5	0
71	652	54.6	0
71	652	54.7	0
71	652	54.8	0
71	652	54.9	0
71	652	55	0
71	652	55.1	0
71	652	55.2	0
71	652	55.3	0
71	652	55.4	0
71	652	55.5	0
71	652	55.6	0
71	652	55.7	0
71	652	55.8	0
71	652	55.9	0
71	652	56	0
71	652	56.1	0
71	652	56.2	0
71	652	56.3	0
71	652	56.4	0
71	652	56.5	0
71	652	56.6	0
71	652	56.7	0
71	652	56.8	0
71	652	56.9	0
71	652	57	0
71	652	57.1	0
71	652	57.2	0
71	652	57.3	0
71	652	57.4	0
71	652	57.5	0
71	652	57.6	0
71	652	57.7	0
71	652	57.8	0
71	652	57.9	0
71	652	58	0
71	652	58.1	0
71	652	58.2	0
71	652	58.3	0
71	652	58.4	0
71	652	58.5	0
71	652	58.6	0
71	652	58.7	0
71	652	58.8	0
71	652	58.9	0
71	652	59	0
71	652	59.1	0
71	652	59.2	0
71	652	59.3	0
71	652	59.4	0
71	652	59.5	0
71	652	59.6	0
71	652	59.7	0
71	652	59.8	0
71	652	59.9	0
71	652	60	0
72	652	0.1	0
72	652	0.2	0
72	652	0.3	0
72	652	0.4	0
72	652	0.5	0
72	652	0.6	0
72	652	0.7	0
72	652	0.8	0
72	652	0.9	0
72	652	1	0
72	652	1.1	0
72	652	1.2	0
72	652	1.3	0
72	652	1.4	0
72	652	1.5	0
72	652	1.6	0
72	652	1.7	0
72	652	1.8	0
72	652	1.9	0
72	652	2	0
72	652	2.1	0
72	652	2.2	0
72	652	2.3	0
72	652	2.4	0
72	652	2.5	0
72	652	2.6	0
72	652	2.7	0
72	652	2.8	0
72	652	2.9	0
72	652	3	0
72	652	3.1	0
72	652	3.2	0
72	652	3.3	0
72	652	3.4	0
72	652	3.5	0
72	652	3.6	0
72	652	3.7	0
72	652	3.8	0
72	652	3.9	0
72	652	4	0
72	652	4.1	0
72	652	4.2	0
72	652	4.3	0
72	652	4.4	0
72	652	4.5	0
72	652	4.6	0
72	652	4.7	0
72	652	4.8	0
72	652	4.9	0
72	652	5	0
72	652	5.1	0
72	652	5.2	0
72	652	5.3	0
72	652	5.4	0
72	652	5.5	0
72	652	5.6	0
72	652	5.7	0
72	652	5.8	0
72	652	5.9	0
72	652	6	0
72	652	6.1	0
72	652	6.2	0
72	652	6.3	0
72	652	6.4	0
72	652	6.5	0
72	652	6.6	0
72	652	6.7	0
72	652	6.8	0
72	652	6.9	0
72	652	7	0
72	652	7.1	0
72	652	7.2	0
72	652	7.3	0
72	652	7.4	0
72	652	7.5	0
72	652	7.6	0
72	652	7.7	0
72	652	7.8	0
72	652	7.9	0
72	652	8	0
72	652	8.1	0
72	652	8.2	0
72	652	8.3	0
72	652	8.4	0
72	652	8.5	0
72	652	8.6	0
72	652	8.7	0
72	652	8.8	0
72	652	8.9	0
72	652	9	0
72	652	9.1	0
72	652	9.2	0
72	652	9.3	0
72	652	9.4	0
72	652	9.5	0
72	652	9.6	0
72	652	9.7	0
72	652	9.8	0
72	652	9.9	0
72	652	10	0
72	652	10.1	0
72	652	10.2	0
72	652	10.3	0
72	652	10.4	0
72	652	10.5	0
72	652	10.6	0
72	652	10.7	0
72	652	10.8	0
72	652	10.9	0
72	652	11	0
72	652	11.1	0
72	652	11.2	0
72	652	11.3	0
72	652	11.4	0
72	652	11.5	0
72	652	11.6	0
72	652	11.7	0
72	652	11.8	0
72	652	11.9	0
72	652	12	0
72	652	12.1	0
72	652	12.2	0
72	652	12.3	0
72	652	12.4	0
72	652	12.5	0
72	652	12.6	0
72	652	12.7	0
72	652	12.8	0
72	652	12.9	0
72	652	13	0
72	652	13.1	0
72	652	13.2	0
72	652	13.3	0
72	652	13.4	0
72	652	13.5	0
72	652	13.6	0
72	652	13.7	0
72	652	13.8	0
72	652	13.9	0
72	652	14	0
72	652	14.1	0
72	652	14.2	0
72	652	14.3	0
72	652	14.4	0
72	652	14.5	0
72	652	14.6	0
72	652	14.7	0
72	652	14.8	0
72	652	14.9	0
72	652	15	0
72	652	15.1	0
72	652	15.2	0
72	652	15.3	0
72	652	15.4	0
72	652	15.5	0
72	652	15.6	0
72	652	15.7	0
72	652	15.8	0
72	652	15.9	0
72	652	16	0
72	652	16.1	0
72	652	16.2	0
72	652	16.3	0
72	652	16.4	0
72	652	16.5	0
72	652	16.6	0
72	652	16.7	0
72	652	16.8	0
72	652	16.9	0
72	652	17	0
72	652	17.1	0
72	652	17.2	0
72	652	17.3	0
72	652	17.4	0
72	652	17.5	0
72	652	17.6	0
72	652	17.7	0
72	652	17.8	0
72	652	17.9	0
72	652	18	0
72	652	18.1	0
72	652	18.2	0
72	652	18.3	0
72	652	18.4	0
72	652	18.5	0
72	652	18.6	0
72	652	18.7	0
72	652	18.8	0
72	652	18.9	0
72	652	19	0
72	652	19.1	0
72	652	19.2	0
72	652	19.3	0
72	652	19.4	0
72	652	19.5	0
72	652	19.6	0
72	652	19.7	0
72	652	19.8	0
72	652	19.9	0
72	652	20	0
72	652	20.1	0
72	652	20.2	0
72	652	20.3	0
72	652	20.4	0
72	652	20.5	0
72	652	20.6	0
72	652	20.7	0
72	652	20.8	0
72	652	20.9	0
72	652	21	0
72	652	21.1	0
72	652	21.2	0
72	652	21.3	0
72	652	21.4	0
72	652	21.5	0
72	652	21.6	0
72	652	21.7	0
72	652	21.8	0
72	652	21.9	0
72	652	22	0
72	652	22.1	0
72	652	22.2	0
72	652	22.3	0
72	652	22.4	0
72	652	22.5	0
72	652	22.6	0
72	652	22.7	0
72	652	22.8	0
72	652	22.9	0
72	652	23	0
72	652	23.1	0
72	652	23.2	0
72	652	23.3	0
72	652	23.4	0
72	652	23.5	0
72	652	23.6	0
72	652	23.7	0
72	652	23.8	0
72	652	23.9	0
72	652	24	0
72	652	24.1	0
72	652	24.2	0
72	652	24.3	0
72	652	24.4	0
72	652	24.5	0
72	652	24.6	0
72	652	24.7	0
72	652	24.8	0
72	652	24.9	0
72	652	25	0
72	652	25.1	0
72	652	25.2	0
72	652	25.3	0
72	652	25.4	0
72	652	25.5	0
72	652	25.6	0
72	652	25.7	0
72	652	25.8	0
72	652	25.9	0
72	652	26	0
72	652	26.1	0
72	652	26.2	0
72	652	26.3	0
72	652	26.4	0
72	652	26.5	0
72	652	26.6	0
72	652	26.7	0
72	652	26.8	0
72	652	26.9	0
72	652	27	0
72	652	27.1	0
72	652	27.2	0
72	652	27.3	0
72	652	27.4	0
72	652	27.5	0
72	652	27.6	0
72	652	27.7	0
72	652	27.8	0
72	652	27.9	0
72	652	28	0
72	652	28.1	0
72	652	28.2	0
72	652	28.3	0
72	652	28.4	0
72	652	28.5	0
72	652	28.6	0
72	652	28.7	0
72	652	28.8	0
72	652	28.9	0
72	652	29	0
72	652	29.1	0
72	652	29.2	0
72	652	29.3	0
72	652	29.4	0
72	652	29.5	0
72	652	29.6	0
72	652	29.7	0
72	652	29.8	0
72	652	29.9	0
72	652	30	0
72	652	30.1	0
72	652	30.2	0
72	652	30.3	0
72	652	30.4	0
72	652	30.5	0
72	652	30.6	0
72	652	30.7	0
72	652	30.8	0
72	652	30.9	0
72	652	31	0
72	652	31.1	0
72	652	31.2	0
72	652	31.3	0
72	652	31.4	0
72	652	31.5	0
72	652	31.6	0
72	652	31.7	0
72	652	31.8	0
72	652	31.9	0
72	652	32	0
72	652	32.1	0
72	652	32.2	0
72	652	32.3	0
72	652	32.4	0
72	652	32.5	0
72	652	32.6	0
72	652	32.7	0
72	652	32.8	0
72	652	32.9	0
72	652	33	0
72	652	33.1	0
72	652	33.2	0
72	652	33.3	0
72	652	33.4	0
72	652	33.5	0
72	652	33.6	0
72	652	33.7	0
72	652	33.8	0
72	652	33.9	0
72	652	34	0
72	652	34.1	0
72	652	34.2	0
72	652	34.3	0
72	652	34.4	0
72	652	34.5	0
72	652	34.6	0
72	652	34.7	0
72	652	34.8	0
72	652	34.9	0
72	652	35	0
72	652	35.1	0
72	652	35.2	0
72	652	35.3	0
72	652	35.4	0
72	652	35.5	0
72	652	35.6	0
72	652	35.7	0
72	652	35.8	0
72	652	35.9	0
72	652	36	0
72	652	36.1	0
72	652	36.2	0
72	652	36.3	0
72	652	36.4	0
72	652	36.5	0
72	652	36.6	0
72	652	36.7	0
72	652	36.8	0
72	652	36.9	0
72	652	37	0
72	652	37.1	0
72	652	37.2	0
72	652	37.3	0
72	652	37.4	0
72	652	37.5	0
72	652	37.6	0
72	652	37.7	0
72	652	37.8	0
72	652	37.9	0
72	652	38	0
72	652	38.1	0
72	652	38.2	0
72	652	38.3	0
72	652	38.4	0
72	652	38.5	0
72	652	38.6	0
72	652	38.7	0
72	652	38.8	0
72	652	38.9	0
72	652	39	0
72	652	39.1	0
72	652	39.2	0
72	652	39.3	0
72	652	39.4	0
72	652	39.5	0
72	652	39.6	0
72	652	39.7	0
72	652	39.8	0
72	652	39.9	0
72	652	40	0
72	652	40.1	0
72	652	40.2	0
72	652	40.3	0
72	652	40.4	0
72	652	40.5	0
72	652	40.6	0
72	652	40.7	0
72	652	40.8	0
72	652	40.9	0
72	652	41	0
72	652	41.1	0
72	652	41.2	0
72	652	41.3	0
72	652	41.4	0
72	652	41.5	0
72	652	41.6	0
72	652	41.7	0
72	652	41.8	0
72	652	41.9	0
72	652	42	0
72	652	42.1	0
72	652	42.2	0
72	652	42.3	0
72	652	42.4	0
72	652	42.5	0
72	652	42.6	0
72	652	42.7	0
72	652	42.8	0
72	652	42.9	0
72	652	43	0
72	652	43.1	0
72	652	43.2	0
72	652	43.3	0
72	652	43.4	0
72	652	43.5	0
72	652	43.6	0
72	652	43.7	0
72	652	43.8	0
72	652	43.9	0
72	652	44	0
72	652	44.1	0
72	652	44.2	0
72	652	44.3	0
72	652	44.4	0
72	652	44.5	0
72	652	44.6	0
72	652	44.7	0
72	652	44.8	0
72	652	44.9	0
72	652	45	0
72	652	45.1	0
72	652	45.2	0
72	652	45.3	0
72	652	45.4	0
72	652	45.5	0
72	652	45.6	0
72	652	45.7	0
72	652	45.8	0
72	652	45.9	0
72	652	46	0
72	652	46.1	0
72	652	46.2	0
72	652	46.3	0
72	652	46.4	0
72	652	46.5	0
72	652	46.6	0
72	652	46.7	0
72	652	46.8	0
72	652	46.9	0
72	652	47	0
72	652	47.1	0
72	652	47.2	0
72	652	47.3	0
72	652	47.4	0
72	652	47.5	0
72	652	47.6	0
72	652	47.7	0
72	652	47.8	0
72	652	47.9	0
72	652	48	0
72	652	48.1	0
72	652	48.2	0
72	652	48.3	0
72	652	48.4	0
72	652	48.5	0
72	652	48.6	0
72	652	48.7	0
72	652	48.8	0
72	652	48.9	0
72	652	49	0
72	652	49.1	0
72	652	49.2	0
72	652	49.3	0
72	652	49.4	0
72	652	49.5	0
72	652	49.6	0
72	652	49.7	0
72	652	49.8	0
72	652	49.9	0
72	652	50	0
72	652	50.1	0
72	652	50.2	0
72	652	50.3	0
72	652	50.4	0
72	652	50.5	0
72	652	50.6	0
72	652	50.7	0
72	652	50.8	0
72	652	50.9	0
72	652	51	0
72	652	51.1	0
72	652	51.2	0
72	652	51.3	0
72	652	51.4	0
72	652	51.5	0
72	652	51.6	0
72	652	51.7	0
72	652	51.8	0
72	652	51.9	0
72	652	52	0
72	652	52.1	0
72	652	52.2	0
72	652	52.3	0
72	652	52.4	0
72	652	52.5	0
72	652	52.6	0
72	652	52.7	0
72	652	52.8	0
72	652	52.9	0
72	652	53	0
72	652	53.1	0
72	652	53.2	0
72	652	53.3	0
72	652	53.4	0
72	652	53.5	0
72	652	53.6	0
72	652	53.7	0
72	652	53.8	0
72	652	53.9	0
72	652	54	0
72	652	54.1	0
72	652	54.2	0
72	652	54.3	0
72	652	54.4	0
72	652	54.5	0
72	652	54.6	0
72	652	54.7	0
72	652	54.8	0
72	652	54.9	0
72	652	55	0
72	652	55.1	0
72	652	55.2	0
72	652	55.3	0
72	652	55.4	0
72	652	55.5	0
72	652	55.6	0
72	652	55.7	0
72	652	55.8	0
72	652	55.9	0
72	652	56	0
72	652	56.1	0
72	652	56.2	0
72	652	56.3	0
72	652	56.4	0
72	652	56.5	0
72	652	56.6	0
72	652	56.7	0
72	652	56.8	0
72	652	56.9	0
72	652	57	0
72	652	57.1	0
72	652	57.2	0
72	652	57.3	0
72	652	57.4	0
72	652	57.5	0
72	652	57.6	0
72	652	57.7	0
72	652	57.8	0
72	652	57.9	0
72	652	58	0
72	652	58.1	0
72	652	58.2	0
72	652	58.3	0
72	652	58.4	0
72	652	58.5	0
72	652	58.6	0
72	652	58.7	0
72	652	58.8	0
72	652	58.9	0
72	652	59	0
72	652	59.1	0
72	652	59.2	0
72	652	59.3	0
72	652	59.4	0
72	652	59.5	0
72	652	59.6	0
72	652	59.7	0
72	652	59.8	0
72	652	59.9	0
72	652	60	0
73	652	0.1	0
73	652	0.2	0
73	652	0.3	0
73	652	0.4	0
73	652	0.5	0
73	652	0.6	0
73	652	0.7	0
73	652	0.8	0
73	652	0.9	0
73	652	1	0
73	652	1.1	0
73	652	1.2	0
73	652	1.3	0
73	652	1.4	0
73	652	1.5	0
73	652	1.6	0
73	652	1.7	0
73	652	1.8	0
73	652	1.9	0
73	652	2	0
73	652	2.1	0
73	652	2.2	0
73	652	2.3	0
73	652	2.4	0
73	652	2.5	0
73	652	2.6	0
73	652	2.7	0
73	652	2.8	0
73	652	2.9	0
73	652	3	0
73	652	3.1	0
73	652	3.2	0
73	652	3.3	0
73	652	3.4	0
73	652	3.5	0
73	652	3.6	0
73	652	3.7	0
73	652	3.8	0
73	652	3.9	0
73	652	4	0
73	652	4.1	0
73	652	4.2	0
73	652	4.3	0
73	652	4.4	0
73	652	4.5	0
73	652	4.6	0
73	652	4.7	0
73	652	4.8	0
73	652	4.9	0
73	652	5	0
73	652	5.1	0
73	652	5.2	0
73	652	5.3	0
73	652	5.4	0
73	652	5.5	0
73	652	5.6	0
73	652	5.7	0
73	652	5.8	0
73	652	5.9	0
73	652	6	0
73	652	6.1	0
73	652	6.2	0
73	652	6.3	0
73	652	6.4	0
73	652	6.5	0
73	652	6.6	0
73	652	6.7	0
73	652	6.8	0
73	652	6.9	0
73	652	7	0
73	652	7.1	0
73	652	7.2	0
73	652	7.3	0
73	652	7.4	0
73	652	7.5	0
73	652	7.6	0
73	652	7.7	0
73	652	7.8	0
73	652	7.9	0
73	652	8	0
73	652	8.1	0
73	652	8.2	0
73	652	8.3	0
73	652	8.4	0
73	652	8.5	0
73	652	8.6	0
73	652	8.7	0
73	652	8.8	0
73	652	8.9	0
73	652	9	0
73	652	9.1	0
73	652	9.2	0
73	652	9.3	0
73	652	9.4	0
73	652	9.5	0
73	652	9.6	0
73	652	9.7	0
73	652	9.8	0
73	652	9.9	0
73	652	10	0
73	652	10.1	0
73	652	10.2	0
73	652	10.3	0
73	652	10.4	0
73	652	10.5	0
73	652	10.6	0
73	652	10.7	0
73	652	10.8	0
73	652	10.9	0
73	652	11	0
73	652	11.1	0
73	652	11.2	0
73	652	11.3	0
73	652	11.4	0
73	652	11.5	0
73	652	11.6	0
73	652	11.7	0
73	652	11.8	0
73	652	11.9	0
73	652	12	0
73	652	12.1	0
73	652	12.2	0
73	652	12.3	0
73	652	12.4	0
73	652	12.5	0
73	652	12.6	0
73	652	12.7	0
73	652	12.8	0
73	652	12.9	0
73	652	13	0
73	652	13.1	0
73	652	13.2	0
73	652	13.3	0
73	652	13.4	0
73	652	13.5	0
73	652	13.6	0
73	652	13.7	0
73	652	13.8	0
73	652	13.9	0
73	652	14	0
73	652	14.1	0
73	652	14.2	0
73	652	14.3	0
73	652	14.4	0
73	652	14.5	0
73	652	14.6	0
73	652	14.7	0
73	652	14.8	0
73	652	14.9	0
73	652	15	0
73	652	15.1	0
73	652	15.2	0
73	652	15.3	0
73	652	15.4	0
73	652	15.5	0
73	652	15.6	0
73	652	15.7	0
73	652	15.8	0
73	652	15.9	0
73	652	16	0
73	652	16.1	0
73	652	16.2	0
73	652	16.3	0
73	652	16.4	0
73	652	16.5	0
73	652	16.6	0
73	652	16.7	0
73	652	16.8	0
73	652	16.9	0
73	652	17	0
73	652	17.1	0
73	652	17.2	0
73	652	17.3	0
73	652	17.4	0
73	652	17.5	0
73	652	17.6	0
73	652	17.7	0
73	652	17.8	0
73	652	17.9	0
73	652	18	0
73	652	18.1	0
73	652	18.2	0
73	652	18.3	0
73	652	18.4	0
73	652	18.5	0
73	652	18.6	0
73	652	18.7	0
73	652	18.8	0
73	652	18.9	0
73	652	19	0
73	652	19.1	0
73	652	19.2	0
73	652	19.3	0
73	652	19.4	0
73	652	19.5	0
73	652	19.6	0
73	652	19.7	0
73	652	19.8	0
73	652	19.9	0
73	652	20	0
73	652	20.1	0
73	652	20.2	0
73	652	20.3	0
73	652	20.4	0
73	652	20.5	0
73	652	20.6	0
73	652	20.7	0
73	652	20.8	0
73	652	20.9	0
73	652	21	0
73	652	21.1	0
73	652	21.2	0
73	652	21.3	0
73	652	21.4	0
73	652	21.5	0
73	652	21.6	0
73	652	21.7	0
73	652	21.8	0
73	652	21.9	0
73	652	22	0
73	652	22.1	0
73	652	22.2	0
73	652	22.3	0
73	652	22.4	0
73	652	22.5	0
73	652	22.6	0
73	652	22.7	0
73	652	22.8	0
73	652	22.9	0
73	652	23	0
73	652	23.1	0
73	652	23.2	0
73	652	23.3	0
73	652	23.4	0
73	652	23.5	0
73	652	23.6	0
73	652	23.7	0
73	652	23.8	0
73	652	23.9	0
73	652	24	0
73	652	24.1	0
73	652	24.2	0
73	652	24.3	0
73	652	24.4	0
73	652	24.5	0
73	652	24.6	0
73	652	24.7	0
73	652	24.8	0
73	652	24.9	0
73	652	25	0
73	652	25.1	0
73	652	25.2	0
73	652	25.3	0
73	652	25.4	0
73	652	25.5	0
73	652	25.6	0
73	652	25.7	0
73	652	25.8	0
73	652	25.9	0
73	652	26	0
73	652	26.1	0
73	652	26.2	0
73	652	26.3	0
73	652	26.4	0
73	652	26.5	0
73	652	26.6	0
73	652	26.7	0
73	652	26.8	0
73	652	26.9	0
73	652	27	0
73	652	27.1	0
73	652	27.2	0
73	652	27.3	0
73	652	27.4	0
73	652	27.5	0
73	652	27.6	0
73	652	27.7	0
73	652	27.8	0
73	652	27.9	0
73	652	28	0
73	652	28.1	0
73	652	28.2	0
73	652	28.3	0
73	652	28.4	0
73	652	28.5	0
73	652	28.6	0
73	652	28.7	0
73	652	28.8	0
73	652	28.9	0
73	652	29	0
73	652	29.1	0
73	652	29.2	0
73	652	29.3	0
73	652	29.4	0
73	652	29.5	0
73	652	29.6	0
73	652	29.7	0
73	652	29.8	0
73	652	29.9	0
73	652	30	0
73	652	30.1	0
73	652	30.2	0
73	652	30.3	0
73	652	30.4	0
73	652	30.5	0
73	652	30.6	0
73	652	30.7	0
73	652	30.8	0
73	652	30.9	0
73	652	31	0
73	652	31.1	0
73	652	31.2	0
73	652	31.3	0
73	652	31.4	0
73	652	31.5	0
73	652	31.6	0
73	652	31.7	0
73	652	31.8	0
73	652	31.9	0
73	652	32	0
73	652	32.1	0
73	652	32.2	0
73	652	32.3	0
73	652	32.4	0
73	652	32.5	0
73	652	32.6	0
73	652	32.7	0
73	652	32.8	0
73	652	32.9	0
73	652	33	0
73	652	33.1	0
73	652	33.2	0
73	652	33.3	0
73	652	33.4	0
73	652	33.5	0
73	652	33.6	0
73	652	33.7	0
73	652	33.8	0
73	652	33.9	0
73	652	34	0
73	652	34.1	0
73	652	34.2	0
73	652	34.3	0
73	652	34.4	0
73	652	34.5	0
73	652	34.6	0
73	652	34.7	0
73	652	34.8	0
73	652	34.9	0
73	652	35	0
73	652	35.1	0
73	652	35.2	0
73	652	35.3	0
73	652	35.4	0
73	652	35.5	0
73	652	35.6	0
73	652	35.7	0
73	652	35.8	0
73	652	35.9	0
73	652	36	0
73	652	36.1	0
73	652	36.2	0
73	652	36.3	0
73	652	36.4	0
73	652	36.5	0
73	652	36.6	0
73	652	36.7	0
73	652	36.8	0
73	652	36.9	0
73	652	37	0
73	652	37.1	0
73	652	37.2	0
73	652	37.3	0
73	652	37.4	0
73	652	37.5	0
73	652	37.6	0
73	652	37.7	0
73	652	37.8	0
73	652	37.9	0
73	652	38	0
73	652	38.1	0
73	652	38.2	0
73	652	38.3	0
73	652	38.4	0
73	652	38.5	0
73	652	38.6	0
73	652	38.7	0
73	652	38.8	0
73	652	38.9	0
73	652	39	0
73	652	39.1	0
73	652	39.2	0
73	652	39.3	0
73	652	39.4	0
73	652	39.5	0
73	652	39.6	0
73	652	39.7	0
73	652	39.8	0
73	652	39.9	0
73	652	40	0
73	652	40.1	0
73	652	40.2	0
73	652	40.3	0
73	652	40.4	0
73	652	40.5	0
73	652	40.6	0
73	652	40.7	0
73	652	40.8	0
73	652	40.9	0
73	652	41	0
73	652	41.1	0
73	652	41.2	0
73	652	41.3	0
73	652	41.4	0
73	652	41.5	0
73	652	41.6	0
73	652	41.7	0
73	652	41.8	0
73	652	41.9	0
73	652	42	0
73	652	42.1	0
73	652	42.2	0
73	652	42.3	0
73	652	42.4	0
73	652	42.5	0
73	652	42.6	0
73	652	42.7	0
73	652	42.8	0
73	652	42.9	0
73	652	43	0
73	652	43.1	0
73	652	43.2	0
73	652	43.3	0
73	652	43.4	0
73	652	43.5	0
73	652	43.6	0
73	652	43.7	0
73	652	43.8	0
73	652	43.9	0
73	652	44	0
73	652	44.1	0
73	652	44.2	0
73	652	44.3	0
73	652	44.4	0
73	652	44.5	0
73	652	44.6	0
73	652	44.7	0
73	652	44.8	0
73	652	44.9	0
73	652	45	0
73	652	45.1	0
73	652	45.2	0
73	652	45.3	0
73	652	45.4	0
73	652	45.5	0
73	652	45.6	0
73	652	45.7	0
73	652	45.8	0
73	652	45.9	0
73	652	46	0
73	652	46.1	0
73	652	46.2	0
73	652	46.3	0
73	652	46.4	0
73	652	46.5	0
73	652	46.6	0
73	652	46.7	0
73	652	46.8	0
73	652	46.9	0
73	652	47	0
73	652	47.1	0
73	652	47.2	0
73	652	47.3	0
73	652	47.4	0
73	652	47.5	0
73	652	47.6	0
73	652	47.7	0
73	652	47.8	0
73	652	47.9	0
73	652	48	0
73	652	48.1	0
73	652	48.2	0
73	652	48.3	0
73	652	48.4	0
73	652	48.5	0
73	652	48.6	0
73	652	48.7	0
73	652	48.8	0
73	652	48.9	0
73	652	49	0
73	652	49.1	0
73	652	49.2	0
73	652	49.3	0
73	652	49.4	0
73	652	49.5	0
73	652	49.6	0
73	652	49.7	0
73	652	49.8	0
73	652	49.9	0
73	652	50	0
73	652	50.1	0
73	652	50.2	0
73	652	50.3	0
73	652	50.4	0
73	652	50.5	0
73	652	50.6	0
73	652	50.7	0
73	652	50.8	0
73	652	50.9	0
73	652	51	0
73	652	51.1	0
73	652	51.2	0
73	652	51.3	0
73	652	51.4	0
73	652	51.5	0
73	652	51.6	0
73	652	51.7	0
73	652	51.8	0
73	652	51.9	0
73	652	52	0
73	652	52.1	0
73	652	52.2	0
73	652	52.3	0
73	652	52.4	0
73	652	52.5	0
73	652	52.6	0
73	652	52.7	0
73	652	52.8	0
73	652	52.9	0
73	652	53	0
73	652	53.1	0
73	652	53.2	0
73	652	53.3	0
73	652	53.4	0
73	652	53.5	0
73	652	53.6	0
73	652	53.7	0
73	652	53.8	0
73	652	53.9	0
73	652	54	0
73	652	54.1	0
73	652	54.2	0
73	652	54.3	0
73	652	54.4	0
73	652	54.5	0
73	652	54.6	0
73	652	54.7	0
73	652	54.8	0
73	652	54.9	0
73	652	55	0
73	652	55.1	0
73	652	55.2	0
73	652	55.3	0
73	652	55.4	0
73	652	55.5	0
73	652	55.6	0
73	652	55.7	0
73	652	55.8	0
73	652	55.9	0
73	652	56	0
73	652	56.1	0
73	652	56.2	0
73	652	56.3	0
73	652	56.4	0
73	652	56.5	0
73	652	56.6	0
73	652	56.7	0
73	652	56.8	0
73	652	56.9	0
73	652	57	0
73	652	57.1	0
73	652	57.2	0
73	652	57.3	0
73	652	57.4	0
73	652	57.5	0
73	652	57.6	0
73	652	57.7	0
73	652	57.8	0
73	652	57.9	0
73	652	58	0
73	652	58.1	0
73	652	58.2	0
73	652	58.3	0
73	652	58.4	0
73	652	58.5	0
73	652	58.6	0
73	652	58.7	0
73	652	58.8	0
73	652	58.9	0
73	652	59	0
73	652	59.1	0
73	652	59.2	0
73	652	59.3	0
73	652	59.4	0
73	652	59.5	0
73	652	59.6	0
73	652	59.7	0
73	652	59.8	0
73	652	59.9	0
73	652	60	0
74	652	0.1	0
74	652	0.2	0
74	652	0.3	0
74	652	0.4	0
74	652	0.5	0
74	652	0.6	0
74	652	0.7	0
74	652	0.8	0
74	652	0.9	0
74	652	1	0
74	652	1.1	0
74	652	1.2	0
74	652	1.3	0
74	652	1.4	0
74	652	1.5	0
74	652	1.6	0
74	652	1.7	0
74	652	1.8	0
74	652	1.9	0
74	652	2	0
74	652	2.1	0
74	652	2.2	0
74	652	2.3	0
74	652	2.4	0
74	652	2.5	0
74	652	2.6	0
74	652	2.7	0
74	652	2.8	0
74	652	2.9	0
74	652	3	0
74	652	3.1	0
74	652	3.2	0
74	652	3.3	0
74	652	3.4	0
74	652	3.5	0
74	652	3.6	0
74	652	3.7	0
74	652	3.8	0
74	652	3.9	0
74	652	4	0
74	652	4.1	0
74	652	4.2	0
74	652	4.3	0
74	652	4.4	0
74	652	4.5	0
74	652	4.6	0
74	652	4.7	0
74	652	4.8	0
74	652	4.9	0
74	652	5	0
74	652	5.1	0
74	652	5.2	0
74	652	5.3	0
74	652	5.4	0
74	652	5.5	0
74	652	5.6	0
74	652	5.7	0
74	652	5.8	0
74	652	5.9	0
74	652	6	0
74	652	6.1	0
74	652	6.2	0
74	652	6.3	0
74	652	6.4	0
74	652	6.5	0
74	652	6.6	0
74	652	6.7	0
74	652	6.8	0
74	652	6.9	0
74	652	7	0
74	652	7.1	0
74	652	7.2	0
74	652	7.3	0
74	652	7.4	0
74	652	7.5	0
74	652	7.6	0
74	652	7.7	0
74	652	7.8	0
74	652	7.9	0
74	652	8	0
74	652	8.1	0
74	652	8.2	0
74	652	8.3	0
74	652	8.4	0
74	652	8.5	0
74	652	8.6	0
74	652	8.7	0
74	652	8.8	0
74	652	8.9	0
74	652	9	0
74	652	9.1	0
74	652	9.2	0
74	652	9.3	0
74	652	9.4	0
74	652	9.5	0
74	652	9.6	0
74	652	9.7	0
74	652	9.8	0
74	652	9.9	0
74	652	10	0
74	652	10.1	0
74	652	10.2	0
74	652	10.3	0
74	652	10.4	0
74	652	10.5	0
74	652	10.6	0
74	652	10.7	0
74	652	10.8	0
74	652	10.9	0
74	652	11	0
74	652	11.1	0
74	652	11.2	0
74	652	11.3	0
74	652	11.4	0
74	652	11.5	0
74	652	11.6	0
74	652	11.7	0
74	652	11.8	0
74	652	11.9	0
74	652	12	0
74	652	12.1	0
74	652	12.2	0
74	652	12.3	0
74	652	12.4	0
74	652	12.5	0
74	652	12.6	0
74	652	12.7	0
74	652	12.8	0
74	652	12.9	0
74	652	13	0
74	652	13.1	0
74	652	13.2	0
74	652	13.3	0
74	652	13.4	0
74	652	13.5	0
74	652	13.6	0
74	652	13.7	0
74	652	13.8	0
74	652	13.9	0
74	652	14	0
74	652	14.1	0
74	652	14.2	0
74	652	14.3	0
74	652	14.4	0
74	652	14.5	0
74	652	14.6	0
74	652	14.7	0
74	652	14.8	0
74	652	14.9	0
74	652	15	0
74	652	15.1	0
74	652	15.2	0
74	652	15.3	0
74	652	15.4	0
74	652	15.5	0
74	652	15.6	0
74	652	15.7	0
74	652	15.8	0
74	652	15.9	0
74	652	16	0
74	652	16.1	0
74	652	16.2	0
74	652	16.3	0
74	652	16.4	0
74	652	16.5	0
74	652	16.6	0
74	652	16.7	0
74	652	16.8	0
74	652	16.9	0
74	652	17	0
74	652	17.1	0
74	652	17.2	0
74	652	17.3	0
74	652	17.4	0
74	652	17.5	0
74	652	17.6	0
74	652	17.7	0
74	652	17.8	0
74	652	17.9	0
74	652	18	0
74	652	18.1	0
74	652	18.2	0
74	652	18.3	0
74	652	18.4	0
74	652	18.5	0
74	652	18.6	0
74	652	18.7	0
74	652	18.8	0
74	652	18.9	0
74	652	19	0
74	652	19.1	0
74	652	19.2	0
74	652	19.3	0
74	652	19.4	0
74	652	19.5	0
74	652	19.6	0
74	652	19.7	0
74	652	19.8	0
74	652	19.9	0
74	652	20	0
74	652	20.1	0
74	652	20.2	0
74	652	20.3	0
74	652	20.4	0
74	652	20.5	0
74	652	20.6	0
74	652	20.7	0
74	652	20.8	0
74	652	20.9	0
74	652	21	0
74	652	21.1	0
74	652	21.2	0
74	652	21.3	0
74	652	21.4	0
74	652	21.5	0
74	652	21.6	0
74	652	21.7	0
74	652	21.8	0
74	652	21.9	0
74	652	22	0
74	652	22.1	0
74	652	22.2	0
74	652	22.3	0
74	652	22.4	0
74	652	22.5	0
74	652	22.6	0
74	652	22.7	0
74	652	22.8	0
74	652	22.9	0
74	652	23	0
74	652	23.1	0
74	652	23.2	0
74	652	23.3	0
74	652	23.4	0
74	652	23.5	0
74	652	23.6	0
74	652	23.7	0
74	652	23.8	0
74	652	23.9	0
74	652	24	0
74	652	24.1	0
74	652	24.2	0
74	652	24.3	0
74	652	24.4	0
74	652	24.5	0
74	652	24.6	0
74	652	24.7	0
74	652	24.8	0
74	652	24.9	0
74	652	25	0
74	652	25.1	0
74	652	25.2	0
74	652	25.3	0
74	652	25.4	0
74	652	25.5	0
74	652	25.6	0
74	652	25.7	0
74	652	25.8	0
74	652	25.9	0
74	652	26	0
74	652	26.1	0
74	652	26.2	0
74	652	26.3	0
74	652	26.4	0
74	652	26.5	0
74	652	26.6	0
74	652	26.7	0
74	652	26.8	0
74	652	26.9	0
74	652	27	0
74	652	27.1	0
74	652	27.2	0
74	652	27.3	0
74	652	27.4	0
74	652	27.5	0
74	652	27.6	0
74	652	27.7	0
74	652	27.8	0
74	652	27.9	0
74	652	28	0
74	652	28.1	0
74	652	28.2	0
74	652	28.3	0
74	652	28.4	0
74	652	28.5	0
74	652	28.6	0
74	652	28.7	0
74	652	28.8	0
74	652	28.9	0
74	652	29	0
74	652	29.1	0
74	652	29.2	0
74	652	29.3	0
74	652	29.4	0
74	652	29.5	0
74	652	29.6	0
74	652	29.7	0
74	652	29.8	0
74	652	29.9	0
74	652	30	0
74	652	30.1	0
74	652	30.2	0
74	652	30.3	0
74	652	30.4	0
74	652	30.5	0
74	652	30.6	0
74	652	30.7	0
74	652	30.8	0
74	652	30.9	0
74	652	31	0
74	652	31.1	0
74	652	31.2	0
74	652	31.3	0
74	652	31.4	0
74	652	31.5	0
74	652	31.6	0
74	652	31.7	0
74	652	31.8	0
74	652	31.9	0
74	652	32	0
74	652	32.1	0
74	652	32.2	0
74	652	32.3	0
74	652	32.4	0
74	652	32.5	0
74	652	32.6	0
74	652	32.7	0
74	652	32.8	0
74	652	32.9	0
74	652	33	0
74	652	33.1	0
74	652	33.2	0
74	652	33.3	0
74	652	33.4	0
74	652	33.5	0
74	652	33.6	0
74	652	33.7	0
74	652	33.8	0
74	652	33.9	0
74	652	34	0
74	652	34.1	0
74	652	34.2	0
74	652	34.3	0
74	652	34.4	0
74	652	34.5	0
74	652	34.6	0
74	652	34.7	0
74	652	34.8	0
74	652	34.9	0
74	652	35	0
74	652	35.1	0
74	652	35.2	0
74	652	35.3	0
74	652	35.4	0
74	652	35.5	0
74	652	35.6	0
74	652	35.7	0
74	652	35.8	0
74	652	35.9	0
74	652	36	0
74	652	36.1	0
74	652	36.2	0
74	652	36.3	0
74	652	36.4	0
74	652	36.5	0
74	652	36.6	0
74	652	36.7	0
74	652	36.8	0
74	652	36.9	0
74	652	37	0
74	652	37.1	0
74	652	37.2	0
74	652	37.3	0
74	652	37.4	0
74	652	37.5	0
74	652	37.6	0
74	652	37.7	0
74	652	37.8	0
74	652	37.9	0
74	652	38	0
74	652	38.1	0
74	652	38.2	0
74	652	38.3	0
74	652	38.4	0
74	652	38.5	0
74	652	38.6	0
74	652	38.7	0
74	652	38.8	0
74	652	38.9	0
74	652	39	0
74	652	39.1	0
74	652	39.2	0
74	652	39.3	0
74	652	39.4	0
74	652	39.5	0
74	652	39.6	0
74	652	39.7	0
74	652	39.8	0
74	652	39.9	0
74	652	40	0
74	652	40.1	0
74	652	40.2	0
74	652	40.3	0
74	652	40.4	0
74	652	40.5	0
74	652	40.6	0
74	652	40.7	0
74	652	40.8	0
74	652	40.9	0
74	652	41	0
74	652	41.1	0
74	652	41.2	0
74	652	41.3	0
74	652	41.4	0
74	652	41.5	0
74	652	41.6	0
74	652	41.7	0
74	652	41.8	0
74	652	41.9	0
74	652	42	0
74	652	42.1	0
74	652	42.2	0
74	652	42.3	0
74	652	42.4	0
74	652	42.5	0
74	652	42.6	0
74	652	42.7	0
74	652	42.8	0
74	652	42.9	0
74	652	43	0
74	652	43.1	0
74	652	43.2	0
74	652	43.3	0
74	652	43.4	0
74	652	43.5	0
74	652	43.6	0
74	652	43.7	0
74	652	43.8	0
74	652	43.9	0
74	652	44	0
74	652	44.1	0
74	652	44.2	0
74	652	44.3	0
74	652	44.4	0
74	652	44.5	0
74	652	44.6	0
74	652	44.7	0
74	652	44.8	0
74	652	44.9	0
74	652	45	0
74	652	45.1	0
74	652	45.2	0
74	652	45.3	0
74	652	45.4	0
74	652	45.5	0
74	652	45.6	0
74	652	45.7	0
74	652	45.8	0
74	652	45.9	0
74	652	46	0
74	652	46.1	0
74	652	46.2	0
74	652	46.3	0
74	652	46.4	0
74	652	46.5	0
74	652	46.6	0
74	652	46.7	0
74	652	46.8	0
74	652	46.9	0
74	652	47	0
74	652	47.1	0
74	652	47.2	0
74	652	47.3	0
74	652	47.4	0
74	652	47.5	0
74	652	47.6	0
74	652	47.7	0
74	652	47.8	0
74	652	47.9	0
74	652	48	0
74	652	48.1	0
74	652	48.2	0
74	652	48.3	0
74	652	48.4	0
74	652	48.5	0
74	652	48.6	0
74	652	48.7	0
74	652	48.8	0
74	652	48.9	0
74	652	49	0
74	652	49.1	0
74	652	49.2	0
74	652	49.3	0
74	652	49.4	0
74	652	49.5	0
74	652	49.6	0
74	652	49.7	0
74	652	49.8	0
74	652	49.9	0
74	652	50	0
74	652	50.1	0
74	652	50.2	0
74	652	50.3	0
74	652	50.4	0
74	652	50.5	0
74	652	50.6	0
74	652	50.7	0
74	652	50.8	0
74	652	50.9	0
74	652	51	0
74	652	51.1	0
74	652	51.2	0
74	652	51.3	0
74	652	51.4	0
74	652	51.5	0
74	652	51.6	0
74	652	51.7	0
74	652	51.8	0
74	652	51.9	0
74	652	52	0
74	652	52.1	0
74	652	52.2	0
74	652	52.3	0
74	652	52.4	0
74	652	52.5	0
74	652	52.6	0
74	652	52.7	0
74	652	52.8	0
74	652	52.9	0
74	652	53	0
74	652	53.1	0
74	652	53.2	0
74	652	53.3	0
74	652	53.4	0
74	652	53.5	0
74	652	53.6	0
74	652	53.7	0
74	652	53.8	0
74	652	53.9	0
74	652	54	0
74	652	54.1	0
74	652	54.2	0
74	652	54.3	0
74	652	54.4	0
74	652	54.5	0
74	652	54.6	0
74	652	54.7	0
74	652	54.8	0
74	652	54.9	0
74	652	55	0
74	652	55.1	0
74	652	55.2	0
74	652	55.3	0
74	652	55.4	0
74	652	55.5	0
74	652	55.6	0
74	652	55.7	0
74	652	55.8	0
74	652	55.9	0
74	652	56	0
74	652	56.1	0
74	652	56.2	0
74	652	56.3	0
74	652	56.4	0
74	652	56.5	0
74	652	56.6	0
74	652	56.7	0
74	652	56.8	0
74	652	56.9	0
74	652	57	0
74	652	57.1	0
74	652	57.2	0
74	652	57.3	0
74	652	57.4	0
74	652	57.5	0
74	652	57.6	0
74	652	57.7	0
74	652	57.8	0
74	652	57.9	0
74	652	58	0
74	652	58.1	0
74	652	58.2	0
74	652	58.3	0
74	652	58.4	0
74	652	58.5	0
74	652	58.6	0
74	652	58.7	0
74	652	58.8	0
74	652	58.9	0
74	652	59	0
74	652	59.1	0
74	652	59.2	0
74	652	59.3	0
74	652	59.4	0
74	652	59.5	0
74	652	59.6	0
74	652	59.7	0
74	652	59.8	0
74	652	59.9	0
74	652	60	0

