version 2
run DDoSAttack-0-20240429-19:12:25-17612
attr configname DDoSAttack
attr datetime 20240429-19:12:25
attr experiment DDoSAttack
attr inifile omnetpp.ini
attr iterationvars ""
attr iterationvarsf ""
attr measurement ""
attr network Scenario
attr processid 17612
attr repetition 0
attr replication #0
attr resultdir results
attr runnumber 0
attr seedset 0
param *.node[*].**.attacking true
param *.node[*].**.attackString "\"DoS\""
param *.node[*].**.DoSPackets 200
param *.node[*].numApps 1
param *.node[*].app[0].typename "\"vanetattackpackage.veins_inet.AttackTestApp\""
param *.node[*].app[0].interface "\"wlan0\""
param *.node[*].wlan[0].opMode "\"p\""
param *.node[*].wlan[0].radio.typename "\"Ieee80211DimensionalRadio\""
param *.node[*].wlan[0].radio.bandName "\"5.9 GHz\""
param *.node[*].wlan[0].radio.channelNumber 3
param *.node[*].wlan[0].radio.transmitter.power 20mW
param *.node[*].wlan[0].radio.bandwidth "10 MHz"
param *.node[*].wlan[*].radio.antenna.mobility.typename "\"AttachedMobility\""
param *.node[*].wlan[*].radio.antenna.mobility.mobilityModule "\"^.^.^.^.mobility\""
param *.node[*].wlan[*].radio.antenna.mobility.offsetX -2.5m
param *.node[*].wlan[*].radio.antenna.mobility.offsetZ 1.5m
param *.node[*].wlan[*].radio.antenna.mobility.constraintAreaMinX 0m
param *.node[*].wlan[*].radio.antenna.mobility.constraintAreaMaxX 0m
param *.node[*].wlan[*].radio.antenna.mobility.constraintAreaMinY 0m
param *.node[*].wlan[*].radio.antenna.mobility.constraintAreaMaxY 0m
param *.node[*].wlan[*].radio.antenna.mobility.constraintAreaMinZ 0m
param *.node[*].wlan[*].radio.antenna.mobility.constraintAreaMaxZ 0m
param *.node[*].ipv4.configurator.typename "\"HostAutoConfigurator\""
param *.node[*].ipv4.configurator.interfaces "\"wlan0\""
param *.node[*].ipv4.configurator.mcastGroups "\"224.0.0.1\""
param *.node[*].mobility.typename "\"VeinsInetMobility\""
param *.manager.updateInterval 0.1s
param *.manager.host "\"localhost\""
param *.manager.port 9999
param *.manager.autoShutdown true
param *.manager.launchConfig "xmldoc(\"motorway.launchd.xml\")"
param *.manager.moduleType "\"vanetattackpackage.veins_inet.VeinsInetAttackingCar\""

vector 0 Scenario.node[0].wlan[0].radio radioMode:vector ETV
attr interpolationmode sample-hold
attr source radioModeChanged
attr title "Radio mode, vector"
vector 1 Scenario.node[0].wlan[0].radio radioChannel:vector ETV
attr interpolationmode sample-hold
attr source radioChannelChanged
attr title "Radio channel, vector"
vector 2 Scenario.node[0].wlan[0].radio receptionState:vector ETV
attr interpolationmode sample-hold
attr source receptionStateChanged
attr title "Radio reception state, vector"
vector 3 Scenario.node[0].wlan[0].mac.dcf.recoveryProcedure contentionWindowChanged:vector ETV
attr interpolationmode sample-hold
attr title "contention window, vector"
vector 4 Scenario.node[1].wlan[0].radio radioMode:vector ETV
attr interpolationmode sample-hold
attr source radioModeChanged
attr title "Radio mode, vector"
vector 5 Scenario.node[1].wlan[0].radio radioChannel:vector ETV
attr interpolationmode sample-hold
attr source radioChannelChanged
attr title "Radio channel, vector"
vector 6 Scenario.node[1].wlan[0].radio receptionState:vector ETV
attr interpolationmode sample-hold
attr source receptionStateChanged
attr title "Radio reception state, vector"
vector 7 Scenario.node[1].wlan[0].mac.dcf.recoveryProcedure contentionWindowChanged:vector ETV
attr interpolationmode sample-hold
attr title "contention window, vector"
vector 8 Scenario.node[2].wlan[0].radio radioMode:vector ETV
attr interpolationmode sample-hold
attr source radioModeChanged
attr title "Radio mode, vector"
vector 9 Scenario.node[2].wlan[0].radio radioChannel:vector ETV
attr interpolationmode sample-hold
attr source radioChannelChanged
attr title "Radio channel, vector"
vector 10 Scenario.node[2].wlan[0].radio receptionState:vector ETV
attr interpolationmode sample-hold
attr source receptionStateChanged
attr title "Radio reception state, vector"
vector 11 Scenario.node[2].wlan[0].mac.dcf.recoveryProcedure contentionWindowChanged:vector ETV
attr interpolationmode sample-hold
attr title "contention window, vector"
vector 12 Scenario.node[3].wlan[0].radio radioMode:vector ETV
attr interpolationmode sample-hold
attr source radioModeChanged
attr title "Radio mode, vector"
vector 13 Scenario.node[3].wlan[0].radio radioChannel:vector ETV
attr interpolationmode sample-hold
attr source radioChannelChanged
attr title "Radio channel, vector"
vector 14 Scenario.node[3].wlan[0].radio receptionState:vector ETV
attr interpolationmode sample-hold
attr source receptionStateChanged
attr title "Radio reception state, vector"
vector 15 Scenario.node[3].wlan[0].mac.dcf.recoveryProcedure contentionWindowChanged:vector ETV
attr interpolationmode sample-hold
attr title "contention window, vector"
vector 16 Scenario.node[4].wlan[0].radio radioMode:vector ETV
attr interpolationmode sample-hold
attr source radioModeChanged
attr title "Radio mode, vector"
vector 17 Scenario.node[4].wlan[0].radio radioChannel:vector ETV
attr interpolationmode sample-hold
attr source radioChannelChanged
attr title "Radio channel, vector"
vector 18 Scenario.node[4].wlan[0].radio receptionState:vector ETV
attr interpolationmode sample-hold
attr source receptionStateChanged
attr title "Radio reception state, vector"
vector 19 Scenario.node[4].wlan[0].mac.dcf.recoveryProcedure contentionWindowChanged:vector ETV
attr interpolationmode sample-hold
attr title "contention window, vector"
vector 20 Scenario.node[0].app[0] packetSent:vector(packetBytes) ETV
attr interpolationmode none
attr source packetSent
attr title "packets sent, vector(packetBytes)"
vector 21 Scenario.node[0].udp packetSent:vector(packetBytes) ETV
attr interpolationmode none
attr source packetSent
attr title "packets sent, vector(packetBytes)"
vector 22 Scenario.node[0].ipv4.ip DoSPacketsSent:vector(packetBytes) ETV
attr interpolationmode none
attr source DoSPacketSent
attr title "packets sent using DoS, vector(packetBytes)"
vector 23 Scenario.node[0].lo[0].lo rcvdPkFromHl:vector(packetBytes) ETV
attr interpolationmode none
attr source packetReceivedFromUpper
attr title "packets received from higher layer, vector(packetBytes)"
vector 24 Scenario.node[0].lo[0].lo passedUpPk:vector(packetBytes) ETV
attr interpolationmode none
attr source packetSentToUpper
attr title "packets passed to higher layer, vector(packetBytes)"
vector 25 Scenario.node[0].ipv4.ip totalPacketsReceieved:vector(packetBytes) ETV
attr interpolationmode none
attr source messageReceived
attr title "packets received from network, vector(packetBytes)"
vector 26 Scenario.node[0].wlan[0].mac packetReceivedFromUpper:vector(packetBytes) ETV
attr interpolationmode none
attr title "packets received from upper layer, vector(packetBytes)"
vector 27 Scenario.node[0].wlan[0].mac.dcf.channelAccess.pendingQueue packetPushed:vector(packetBytes) ETV
attr interpolationmode none
attr title "packet pushed, vector(packetBytes)"
vector 28 Scenario.node[0].wlan[0].mac.dcf.channelAccess.pendingQueue queueLength:vector ETV
attr interpolationmode sample-hold
attr source "count(packetPushed) - count(packetPopped) - count(packetRemoved) - count(packetDropped)"
attr title "queue length, vector"
vector 29 Scenario.node[0].wlan[0].mac.dcf.channelAccess.contention backoffPeriodGenerated:vector ETV
attr interpolationmode none
attr title "backoff periods, vector"
vector 30 Scenario.node[0].wlan[0].mac.dcf.channelAccess.contention backoffActive:vector ETV
attr interpolationmode sample-hold
attr source count(backoffStarted)-count(backoffStopped)
attr title "backoff active, vector"
vector 31 Scenario.node[0].wlan[0].mac.dcf.channelAccess.pendingQueue packetDropQueueOverflow:vector(packetBytes) ETV
attr interpolationmode none
attr source packetDropReasonIsQueueOverflow(packetDropped)
attr title "packet drops: queue overflow, vector(packetBytes)"
vector 32 Scenario.node[0].wlan[0].mac.dcf packetDrop:vector(packetBytes) ETV
attr interpolationmode none
attr source packetDropped
attr title "packet drops, vector(packetBytes)"
vector 33 Scenario.node[0].wlan[0].mac.dcf packetDropQueueOverflow:vector(packetBytes) ETV
attr interpolationmode none
attr source packetDropReasonIsQueueOverflow(packetDropped)
attr title "packet drops: queue overflow, vector(packetBytes)"
vector 34 Scenario.node[0].wlan[0].mac packetDrop:vector(packetBytes) ETV
attr interpolationmode none
attr source packetDropped
attr title "packet drops, vector(packetBytes)"
vector 35 Scenario.node[0].wlan[0].mac packetDropQueueOverflow:vector(packetBytes) ETV
attr interpolationmode none
attr source packetDropReasonIsQueueOverflow(packetDropped)
attr title "packet drops: queue overflow, vector(packetBytes)"
vector 36 Scenario.node[0].udp packetReceived:vector(packetBytes) ETV
attr interpolationmode none
attr source packetReceived
attr title "packets received, vector(packetBytes)"
vector 37 Scenario.node[0].udp passedUpPk:vector(count) ETV
attr interpolationmode none
attr source packetSentToUpper
attr title "packets passed up, vector(count)"
vector 38 Scenario.node[0].app[0] packetReceived:vector(packetBytes) ETV
attr interpolationmode none
attr source packetReceived
attr title "packets received, vector(packetBytes)"
vector 39 Scenario.node[0].app[0] throughput:vector ETV
attr source throughput(packetReceived)
attr title "throughput, vector"
attr unit bps
vector 40 Scenario.node[0].app[0] rcvdPkLifetime:vector ETV
attr interpolationmode none
attr source dataAge(packetReceived)
attr title "received packet lifetime, vector"
attr unit s
vector 41 Scenario.node[0].wlan[0].mac.dcf.channelAccess.pendingQueue packetPopped:vector(packetBytes) ETV
attr interpolationmode none
attr title "packet popped, vector(packetBytes)"
vector 42 Scenario.node[0].wlan[0].mac.dcf.channelAccess.pendingQueue queueingTime:vector ETV
attr interpolationmode none
attr source queueingTime(packetPopped)
attr title "queueing times, vector"
attr unit s
vector 43 Scenario.node[0].wlan[0].mac.dcf.channelAccess.inProgressFrames queueLength:vector ETV
attr interpolationmode sample-hold
attr source "count(packetEnqueued) - count(packetDequeued)"
attr title "queue length, vector"
vector 44 Scenario.node[0].wlan[0].mac.dcf datarateSelected:vector ETV
attr interpolationmode none
attr title "datarates selected, vector"
vector 45 Scenario.node[0].wlan[0].mac packetSentToLower:vector(packetBytes) ETV
attr interpolationmode none
attr title "packets sent to lower layer, vector(packetBytes)"
vector 46 Scenario.node[0].wlan[0].mac.dcf frameSequenceActive:vector ETV
attr interpolationmode sample-hold
attr source count(frameSequenceStarted)-count(frameSequenceFinished)
attr title "frame sequence active, vector"
vector 47 Scenario.node[0].wlan[0].radio transmissionState:vector ETV
attr interpolationmode sample-hold
attr source transmissionStateChanged
attr title "Radio transmission state, vector"
vector 48 Scenario.node[0].wlan[0].mac.dcf packetSentToPeer:vector(packetBytes) ETV
attr interpolationmode none
attr title "packets sent, vector(packetBytes)"
vector 49 Scenario.node[0].wlan[0].mac.dcf packetSentToPeerMulticast:vector(packetBytes) ETV
attr interpolationmode none
attr source ieee80211Multicast(packetSentToPeer)
attr title "packets sent: multicast, vector(packetBytes)"
vector 50 Scenario.node[0].wlan[0].mac.dcf packetSentToPeerWithoutRetry:vector(packetBytes) ETV
attr interpolationmode none
attr source ieee80211NotRetry(packetSentToPeer)
attr title "packets sent: without retry, vector(packetBytes)"
vector 51 Scenario.node[0].wlan[0].mac.dcf.channelAccess.inProgressFrames queueingTime:vector ETV
attr interpolationmode none
attr source queueingTime(packetDequeued)
attr title "queueing times, vector"
vector 52 Scenario.node[1].wlan[0].mac packetReceivedFromLower:vector(packetBytes) ETV
attr interpolationmode none
attr title "packets received from lower layer, vector(packetBytes)"
vector 53 Scenario.node[1].wlan[0].mac.dcf packetReceivedFromPeer:vector(packetBytes) ETV
attr interpolationmode none
attr title "packets received, vector(packetBytes)"
vector 54 Scenario.node[1].wlan[0].mac.dcf packetReceivedFromPeerMulticast:vector(packetBytes) ETV
attr interpolationmode none
attr source ieee80211Multicast(packetReceivedFromPeer)
attr title "packets received: multicast, vector(packetBytes)"
vector 55 Scenario.node[1].wlan[0].mac.dcf packetReceivedFromPeerWithoutRetry:vector(packetBytes) ETV
attr interpolationmode none
attr source ieee80211NotRetry(packetReceivedFromPeer)
attr title "packets received: without retry, vector(packetBytes)"
vector 56 Scenario.node[1].wlan[0].mac packetSentToUpper:vector(packetBytes) ETV
attr interpolationmode none
attr title "packets sent to upper layer, vector(packetBytes)"
vector 57 Scenario.node[1].ipv4.ip totalPacketsReceieved:vector(packetBytes) ETV
attr interpolationmode none
attr source messageReceived
attr title "packets received from network, vector(packetBytes)"
vector 58 Scenario.node[1].udp packetReceived:vector(packetBytes) ETV
attr interpolationmode none
attr source packetReceived
attr title "packets received, vector(packetBytes)"
vector 59 Scenario.node[1].udp passedUpPk:vector(count) ETV
attr interpolationmode none
attr source packetSentToUpper
attr title "packets passed up, vector(count)"
vector 60 Scenario.node[1].app[0] packetReceived:vector(packetBytes) ETV
attr interpolationmode none
attr source packetReceived
attr title "packets received, vector(packetBytes)"
vector 61 Scenario.node[1].app[0] throughput:vector ETV
attr source throughput(packetReceived)
attr title "throughput, vector"
attr unit bps
vector 62 Scenario.node[1].app[0] rcvdPkLifetime:vector ETV
attr interpolationmode none
attr source dataAge(packetReceived)
attr title "received packet lifetime, vector"
attr unit s
vector 63 Scenario.node[1].app[0] packetSent:vector(packetBytes) ETV
attr interpolationmode none
attr source packetSent
attr title "packets sent, vector(packetBytes)"
vector 64 Scenario.node[1].udp packetSent:vector(packetBytes) ETV
attr interpolationmode none
attr source packetSent
attr title "packets sent, vector(packetBytes)"
vector 65 Scenario.node[1].ipv4.ip DoSPacketsSent:vector(packetBytes) ETV
attr interpolationmode none
attr source DoSPacketSent
attr title "packets sent using DoS, vector(packetBytes)"
vector 66 Scenario.node[1].lo[0].lo rcvdPkFromHl:vector(packetBytes) ETV
attr interpolationmode none
attr source packetReceivedFromUpper
attr title "packets received from higher layer, vector(packetBytes)"
vector 67 Scenario.node[1].lo[0].lo passedUpPk:vector(packetBytes) ETV
attr interpolationmode none
attr source packetSentToUpper
attr title "packets passed to higher layer, vector(packetBytes)"
vector 68 Scenario.node[1].wlan[0].mac packetReceivedFromUpper:vector(packetBytes) ETV
attr interpolationmode none
attr title "packets received from upper layer, vector(packetBytes)"
vector 69 Scenario.node[1].wlan[0].mac.dcf.channelAccess.pendingQueue packetPushed:vector(packetBytes) ETV
attr interpolationmode none
attr title "packet pushed, vector(packetBytes)"
vector 70 Scenario.node[1].wlan[0].mac.dcf.channelAccess.pendingQueue queueLength:vector ETV
attr interpolationmode sample-hold
attr source "count(packetPushed) - count(packetPopped) - count(packetRemoved) - count(packetDropped)"
attr title "queue length, vector"
vector 71 Scenario.node[1].wlan[0].mac.dcf.channelAccess.contention backoffPeriodGenerated:vector ETV
attr interpolationmode none
attr title "backoff periods, vector"
vector 72 Scenario.node[1].wlan[0].mac.dcf.channelAccess.contention backoffActive:vector ETV
attr interpolationmode sample-hold
attr source count(backoffStarted)-count(backoffStopped)
attr title "backoff active, vector"
vector 73 Scenario.node[1].wlan[0].mac.dcf.channelAccess.pendingQueue packetDropQueueOverflow:vector(packetBytes) ETV
attr interpolationmode none
attr source packetDropReasonIsQueueOverflow(packetDropped)
attr title "packet drops: queue overflow, vector(packetBytes)"
vector 74 Scenario.node[1].wlan[0].mac.dcf packetDrop:vector(packetBytes) ETV
attr interpolationmode none
attr source packetDropped
attr title "packet drops, vector(packetBytes)"
vector 75 Scenario.node[1].wlan[0].mac.dcf packetDropQueueOverflow:vector(packetBytes) ETV
attr interpolationmode none
attr source packetDropReasonIsQueueOverflow(packetDropped)
attr title "packet drops: queue overflow, vector(packetBytes)"
vector 76 Scenario.node[1].wlan[0].mac packetDrop:vector(packetBytes) ETV
attr interpolationmode none
attr source packetDropped
attr title "packet drops, vector(packetBytes)"
vector 77 Scenario.node[1].wlan[0].mac packetDropQueueOverflow:vector(packetBytes) ETV
attr interpolationmode none
attr source packetDropReasonIsQueueOverflow(packetDropped)
attr title "packet drops: queue overflow, vector(packetBytes)"
vector 78 Scenario.node[2].wlan[0].mac packetReceivedFromLower:vector(packetBytes) ETV
attr interpolationmode none
attr title "packets received from lower layer, vector(packetBytes)"
vector 79 Scenario.node[2].wlan[0].mac.dcf packetReceivedFromPeer:vector(packetBytes) ETV
attr interpolationmode none
attr title "packets received, vector(packetBytes)"
vector 80 Scenario.node[2].wlan[0].mac.dcf packetReceivedFromPeerMulticast:vector(packetBytes) ETV
attr interpolationmode none
attr source ieee80211Multicast(packetReceivedFromPeer)
attr title "packets received: multicast, vector(packetBytes)"
vector 81 Scenario.node[2].wlan[0].mac.dcf packetReceivedFromPeerWithoutRetry:vector(packetBytes) ETV
attr interpolationmode none
attr source ieee80211NotRetry(packetReceivedFromPeer)
attr title "packets received: without retry, vector(packetBytes)"
vector 82 Scenario.node[2].wlan[0].mac packetSentToUpper:vector(packetBytes) ETV
attr interpolationmode none
attr title "packets sent to upper layer, vector(packetBytes)"
vector 83 Scenario.node[2].ipv4.ip totalPacketsReceieved:vector(packetBytes) ETV
attr interpolationmode none
attr source messageReceived
attr title "packets received from network, vector(packetBytes)"
vector 84 Scenario.node[2].udp packetReceived:vector(packetBytes) ETV
attr interpolationmode none
attr source packetReceived
attr title "packets received, vector(packetBytes)"
vector 85 Scenario.node[2].udp passedUpPk:vector(count) ETV
attr interpolationmode none
attr source packetSentToUpper
attr title "packets passed up, vector(count)"
vector 86 Scenario.node[2].app[0] packetReceived:vector(packetBytes) ETV
attr interpolationmode none
attr source packetReceived
attr title "packets received, vector(packetBytes)"
vector 87 Scenario.node[2].app[0] throughput:vector ETV
attr source throughput(packetReceived)
attr title "throughput, vector"
attr unit bps
vector 88 Scenario.node[2].app[0] rcvdPkLifetime:vector ETV
attr interpolationmode none
attr source dataAge(packetReceived)
attr title "received packet lifetime, vector"
attr unit s
vector 89 Scenario.node[2].app[0] packetSent:vector(packetBytes) ETV
attr interpolationmode none
attr source packetSent
attr title "packets sent, vector(packetBytes)"
vector 90 Scenario.node[2].udp packetSent:vector(packetBytes) ETV
attr interpolationmode none
attr source packetSent
attr title "packets sent, vector(packetBytes)"
vector 91 Scenario.node[2].ipv4.ip DoSPacketsSent:vector(packetBytes) ETV
attr interpolationmode none
attr source DoSPacketSent
attr title "packets sent using DoS, vector(packetBytes)"
vector 92 Scenario.node[2].lo[0].lo rcvdPkFromHl:vector(packetBytes) ETV
attr interpolationmode none
attr source packetReceivedFromUpper
attr title "packets received from higher layer, vector(packetBytes)"
vector 93 Scenario.node[2].lo[0].lo passedUpPk:vector(packetBytes) ETV
attr interpolationmode none
attr source packetSentToUpper
attr title "packets passed to higher layer, vector(packetBytes)"
vector 94 Scenario.node[2].wlan[0].mac packetReceivedFromUpper:vector(packetBytes) ETV
attr interpolationmode none
attr title "packets received from upper layer, vector(packetBytes)"
vector 95 Scenario.node[2].wlan[0].mac.dcf.channelAccess.pendingQueue packetPushed:vector(packetBytes) ETV
attr interpolationmode none
attr title "packet pushed, vector(packetBytes)"
vector 96 Scenario.node[2].wlan[0].mac.dcf.channelAccess.pendingQueue queueLength:vector ETV
attr interpolationmode sample-hold
attr source "count(packetPushed) - count(packetPopped) - count(packetRemoved) - count(packetDropped)"
attr title "queue length, vector"
vector 97 Scenario.node[2].wlan[0].mac.dcf.channelAccess.contention backoffPeriodGenerated:vector ETV
attr interpolationmode none
attr title "backoff periods, vector"
vector 98 Scenario.node[2].wlan[0].mac.dcf.channelAccess.contention backoffActive:vector ETV
attr interpolationmode sample-hold
attr source count(backoffStarted)-count(backoffStopped)
attr title "backoff active, vector"
vector 99 Scenario.node[2].wlan[0].mac.dcf.channelAccess.pendingQueue packetDropQueueOverflow:vector(packetBytes) ETV
attr interpolationmode none
attr source packetDropReasonIsQueueOverflow(packetDropped)
attr title "packet drops: queue overflow, vector(packetBytes)"
vector 100 Scenario.node[2].wlan[0].mac.dcf packetDrop:vector(packetBytes) ETV
attr interpolationmode none
attr source packetDropped
attr title "packet drops, vector(packetBytes)"
vector 101 Scenario.node[2].wlan[0].mac.dcf packetDropQueueOverflow:vector(packetBytes) ETV
attr interpolationmode none
attr source packetDropReasonIsQueueOverflow(packetDropped)
attr title "packet drops: queue overflow, vector(packetBytes)"
vector 102 Scenario.node[2].wlan[0].mac packetDrop:vector(packetBytes) ETV
attr interpolationmode none
attr source packetDropped
attr title "packet drops, vector(packetBytes)"
vector 103 Scenario.node[2].wlan[0].mac packetDropQueueOverflow:vector(packetBytes) ETV
attr interpolationmode none
attr source packetDropReasonIsQueueOverflow(packetDropped)
attr title "packet drops: queue overflow, vector(packetBytes)"
vector 104 Scenario.node[3].wlan[0].mac packetReceivedFromLower:vector(packetBytes) ETV
attr interpolationmode none
attr title "packets received from lower layer, vector(packetBytes)"
vector 105 Scenario.node[3].wlan[0].mac.dcf packetReceivedFromPeer:vector(packetBytes) ETV
attr interpolationmode none
attr title "packets received, vector(packetBytes)"
vector 106 Scenario.node[3].wlan[0].mac.dcf packetReceivedFromPeerMulticast:vector(packetBytes) ETV
attr interpolationmode none
attr source ieee80211Multicast(packetReceivedFromPeer)
attr title "packets received: multicast, vector(packetBytes)"
vector 107 Scenario.node[3].wlan[0].mac.dcf packetReceivedFromPeerWithoutRetry:vector(packetBytes) ETV
attr interpolationmode none
attr source ieee80211NotRetry(packetReceivedFromPeer)
attr title "packets received: without retry, vector(packetBytes)"
vector 108 Scenario.node[3].wlan[0].mac packetSentToUpper:vector(packetBytes) ETV
attr interpolationmode none
attr title "packets sent to upper layer, vector(packetBytes)"
vector 109 Scenario.node[3].ipv4.ip totalPacketsReceieved:vector(packetBytes) ETV
attr interpolationmode none
attr source messageReceived
attr title "packets received from network, vector(packetBytes)"
vector 110 Scenario.node[3].udp packetReceived:vector(packetBytes) ETV
attr interpolationmode none
attr source packetReceived
attr title "packets received, vector(packetBytes)"
vector 111 Scenario.node[3].udp passedUpPk:vector(count) ETV
attr interpolationmode none
attr source packetSentToUpper
attr title "packets passed up, vector(count)"
vector 112 Scenario.node[3].app[0] packetReceived:vector(packetBytes) ETV
attr interpolationmode none
attr source packetReceived
attr title "packets received, vector(packetBytes)"
vector 113 Scenario.node[3].app[0] throughput:vector ETV
attr source throughput(packetReceived)
attr title "throughput, vector"
attr unit bps
vector 114 Scenario.node[3].app[0] rcvdPkLifetime:vector ETV
attr interpolationmode none
attr source dataAge(packetReceived)
attr title "received packet lifetime, vector"
attr unit s
vector 115 Scenario.node[3].app[0] packetSent:vector(packetBytes) ETV
attr interpolationmode none
attr source packetSent
attr title "packets sent, vector(packetBytes)"
vector 116 Scenario.node[3].udp packetSent:vector(packetBytes) ETV
attr interpolationmode none
attr source packetSent
attr title "packets sent, vector(packetBytes)"
vector 117 Scenario.node[3].ipv4.ip DoSPacketsSent:vector(packetBytes) ETV
attr interpolationmode none
attr source DoSPacketSent
attr title "packets sent using DoS, vector(packetBytes)"
vector 118 Scenario.node[3].lo[0].lo rcvdPkFromHl:vector(packetBytes) ETV
attr interpolationmode none
attr source packetReceivedFromUpper
attr title "packets received from higher layer, vector(packetBytes)"
vector 119 Scenario.node[3].lo[0].lo passedUpPk:vector(packetBytes) ETV
attr interpolationmode none
attr source packetSentToUpper
attr title "packets passed to higher layer, vector(packetBytes)"
vector 120 Scenario.node[3].wlan[0].mac packetReceivedFromUpper:vector(packetBytes) ETV
attr interpolationmode none
attr title "packets received from upper layer, vector(packetBytes)"
vector 121 Scenario.node[3].wlan[0].mac.dcf.channelAccess.pendingQueue packetPushed:vector(packetBytes) ETV
attr interpolationmode none
attr title "packet pushed, vector(packetBytes)"
vector 122 Scenario.node[3].wlan[0].mac.dcf.channelAccess.pendingQueue queueLength:vector ETV
attr interpolationmode sample-hold
attr source "count(packetPushed) - count(packetPopped) - count(packetRemoved) - count(packetDropped)"
attr title "queue length, vector"
vector 123 Scenario.node[3].wlan[0].mac.dcf.channelAccess.contention backoffPeriodGenerated:vector ETV
attr interpolationmode none
attr title "backoff periods, vector"
vector 124 Scenario.node[3].wlan[0].mac.dcf.channelAccess.contention backoffActive:vector ETV
attr interpolationmode sample-hold
attr source count(backoffStarted)-count(backoffStopped)
attr title "backoff active, vector"
vector 125 Scenario.node[3].wlan[0].mac.dcf.channelAccess.pendingQueue packetDropQueueOverflow:vector(packetBytes) ETV
attr interpolationmode none
attr source packetDropReasonIsQueueOverflow(packetDropped)
attr title "packet drops: queue overflow, vector(packetBytes)"
vector 126 Scenario.node[3].wlan[0].mac.dcf packetDrop:vector(packetBytes) ETV
attr interpolationmode none
attr source packetDropped
attr title "packet drops, vector(packetBytes)"
vector 127 Scenario.node[3].wlan[0].mac.dcf packetDropQueueOverflow:vector(packetBytes) ETV
attr interpolationmode none
attr source packetDropReasonIsQueueOverflow(packetDropped)
attr title "packet drops: queue overflow, vector(packetBytes)"
vector 128 Scenario.node[3].wlan[0].mac packetDrop:vector(packetBytes) ETV
attr interpolationmode none
attr source packetDropped
attr title "packet drops, vector(packetBytes)"
vector 129 Scenario.node[3].wlan[0].mac packetDropQueueOverflow:vector(packetBytes) ETV
attr interpolationmode none
attr source packetDropReasonIsQueueOverflow(packetDropped)
attr title "packet drops: queue overflow, vector(packetBytes)"
vector 130 Scenario.node[4].wlan[0].mac packetReceivedFromLower:vector(packetBytes) ETV
attr interpolationmode none
attr title "packets received from lower layer, vector(packetBytes)"
vector 131 Scenario.node[4].wlan[0].mac.dcf packetReceivedFromPeer:vector(packetBytes) ETV
attr interpolationmode none
attr title "packets received, vector(packetBytes)"
vector 132 Scenario.node[4].wlan[0].mac.dcf packetReceivedFromPeerMulticast:vector(packetBytes) ETV
attr interpolationmode none
attr source ieee80211Multicast(packetReceivedFromPeer)
attr title "packets received: multicast, vector(packetBytes)"
vector 133 Scenario.node[4].wlan[0].mac.dcf packetReceivedFromPeerWithoutRetry:vector(packetBytes) ETV
attr interpolationmode none
attr source ieee80211NotRetry(packetReceivedFromPeer)
attr title "packets received: without retry, vector(packetBytes)"
vector 134 Scenario.node[4].wlan[0].mac packetSentToUpper:vector(packetBytes) ETV
attr interpolationmode none
attr title "packets sent to upper layer, vector(packetBytes)"
vector 135 Scenario.node[4].ipv4.ip totalPacketsReceieved:vector(packetBytes) ETV
attr interpolationmode none
attr source messageReceived
attr title "packets received from network, vector(packetBytes)"
vector 136 Scenario.node[4].udp packetReceived:vector(packetBytes) ETV
attr interpolationmode none
attr source packetReceived
attr title "packets received, vector(packetBytes)"
vector 137 Scenario.node[4].udp passedUpPk:vector(count) ETV
attr interpolationmode none
attr source packetSentToUpper
attr title "packets passed up, vector(count)"
vector 138 Scenario.node[4].app[0] packetReceived:vector(packetBytes) ETV
attr interpolationmode none
attr source packetReceived
attr title "packets received, vector(packetBytes)"
vector 139 Scenario.node[4].app[0] throughput:vector ETV
attr source throughput(packetReceived)
attr title "throughput, vector"
attr unit bps
vector 140 Scenario.node[4].app[0] rcvdPkLifetime:vector ETV
attr interpolationmode none
attr source dataAge(packetReceived)
attr title "received packet lifetime, vector"
attr unit s
vector 141 Scenario.node[4].app[0] packetSent:vector(packetBytes) ETV
attr interpolationmode none
attr source packetSent
attr title "packets sent, vector(packetBytes)"
vector 142 Scenario.node[4].udp packetSent:vector(packetBytes) ETV
attr interpolationmode none
attr source packetSent
attr title "packets sent, vector(packetBytes)"
vector 143 Scenario.node[4].ipv4.ip DoSPacketsSent:vector(packetBytes) ETV
attr interpolationmode none
attr source DoSPacketSent
attr title "packets sent using DoS, vector(packetBytes)"
vector 144 Scenario.node[4].lo[0].lo rcvdPkFromHl:vector(packetBytes) ETV
attr interpolationmode none
attr source packetReceivedFromUpper
attr title "packets received from higher layer, vector(packetBytes)"
vector 145 Scenario.node[4].lo[0].lo passedUpPk:vector(packetBytes) ETV
attr interpolationmode none
attr source packetSentToUpper
attr title "packets passed to higher layer, vector(packetBytes)"
vector 146 Scenario.node[4].wlan[0].mac packetReceivedFromUpper:vector(packetBytes) ETV
attr interpolationmode none
attr title "packets received from upper layer, vector(packetBytes)"
vector 147 Scenario.node[4].wlan[0].mac.dcf.channelAccess.pendingQueue packetPushed:vector(packetBytes) ETV
attr interpolationmode none
attr title "packet pushed, vector(packetBytes)"
vector 148 Scenario.node[4].wlan[0].mac.dcf.channelAccess.pendingQueue queueLength:vector ETV
attr interpolationmode sample-hold
attr source "count(packetPushed) - count(packetPopped) - count(packetRemoved) - count(packetDropped)"
attr title "queue length, vector"
vector 149 Scenario.node[4].wlan[0].mac.dcf.channelAccess.contention backoffPeriodGenerated:vector ETV
attr interpolationmode none
attr title "backoff periods, vector"
vector 150 Scenario.node[4].wlan[0].mac.dcf.channelAccess.contention backoffActive:vector ETV
attr interpolationmode sample-hold
attr source count(backoffStarted)-count(backoffStopped)
attr title "backoff active, vector"
vector 151 Scenario.node[4].wlan[0].mac.dcf.channelAccess.pendingQueue packetDropQueueOverflow:vector(packetBytes) ETV
attr interpolationmode none
attr source packetDropReasonIsQueueOverflow(packetDropped)
attr title "packet drops: queue overflow, vector(packetBytes)"
vector 152 Scenario.node[4].wlan[0].mac.dcf packetDrop:vector(packetBytes) ETV
attr interpolationmode none
attr source packetDropped
attr title "packet drops, vector(packetBytes)"
vector 153 Scenario.node[4].wlan[0].mac.dcf packetDropQueueOverflow:vector(packetBytes) ETV
attr interpolationmode none
attr source packetDropReasonIsQueueOverflow(packetDropped)
attr title "packet drops: queue overflow, vector(packetBytes)"
vector 154 Scenario.node[4].wlan[0].mac packetDrop:vector(packetBytes) ETV
attr interpolationmode none
attr source packetDropped
attr title "packet drops, vector(packetBytes)"
vector 155 Scenario.node[4].wlan[0].mac packetDropQueueOverflow:vector(packetBytes) ETV
attr interpolationmode none
attr source packetDropReasonIsQueueOverflow(packetDropped)
attr title "packet drops: queue overflow, vector(packetBytes)"
vector 156 Scenario.node[3].wlan[0].mac.dcf.channelAccess.pendingQueue packetPopped:vector(packetBytes) ETV
attr interpolationmode none
attr title "packet popped, vector(packetBytes)"
vector 157 Scenario.node[3].wlan[0].mac.dcf.channelAccess.pendingQueue queueingTime:vector ETV
attr interpolationmode none
attr source queueingTime(packetPopped)
attr title "queueing times, vector"
attr unit s
vector 158 Scenario.node[3].wlan[0].mac.dcf.channelAccess.inProgressFrames queueLength:vector ETV
attr interpolationmode sample-hold
attr source "count(packetEnqueued) - count(packetDequeued)"
attr title "queue length, vector"
vector 159 Scenario.node[3].wlan[0].mac.dcf datarateSelected:vector ETV
attr interpolationmode none
attr title "datarates selected, vector"
vector 160 Scenario.node[3].wlan[0].mac packetSentToLower:vector(packetBytes) ETV
attr interpolationmode none
attr title "packets sent to lower layer, vector(packetBytes)"
vector 161 Scenario.node[3].wlan[0].mac.dcf frameSequenceActive:vector ETV
attr interpolationmode sample-hold
attr source count(frameSequenceStarted)-count(frameSequenceFinished)
attr title "frame sequence active, vector"
vector 162 Scenario.node[3].wlan[0].radio transmissionState:vector ETV
attr interpolationmode sample-hold
attr source transmissionStateChanged
attr title "Radio transmission state, vector"
vector 163 Scenario.node[3].wlan[0].mac.dcf packetSentToPeer:vector(packetBytes) ETV
attr interpolationmode none
attr title "packets sent, vector(packetBytes)"
vector 164 Scenario.node[3].wlan[0].mac.dcf packetSentToPeerMulticast:vector(packetBytes) ETV
attr interpolationmode none
attr source ieee80211Multicast(packetSentToPeer)
attr title "packets sent: multicast, vector(packetBytes)"
vector 165 Scenario.node[3].wlan[0].mac.dcf packetSentToPeerWithoutRetry:vector(packetBytes) ETV
attr interpolationmode none
attr source ieee80211NotRetry(packetSentToPeer)
attr title "packets sent: without retry, vector(packetBytes)"
vector 166 Scenario.node[3].wlan[0].mac.dcf.channelAccess.inProgressFrames queueingTime:vector ETV
attr interpolationmode none
attr source queueingTime(packetDequeued)
attr title "queueing times, vector"
vector 167 Scenario.node[0].wlan[0].mac packetReceivedFromLower:vector(packetBytes) ETV
attr interpolationmode none
attr title "packets received from lower layer, vector(packetBytes)"
vector 168 Scenario.node[0].wlan[0].mac.dcf packetReceivedFromPeer:vector(packetBytes) ETV
attr interpolationmode none
attr title "packets received, vector(packetBytes)"
vector 169 Scenario.node[0].wlan[0].mac.dcf packetReceivedFromPeerMulticast:vector(packetBytes) ETV
attr interpolationmode none
attr source ieee80211Multicast(packetReceivedFromPeer)
attr title "packets received: multicast, vector(packetBytes)"
vector 170 Scenario.node[0].wlan[0].mac.dcf packetReceivedFromPeerWithoutRetry:vector(packetBytes) ETV
attr interpolationmode none
attr source ieee80211NotRetry(packetReceivedFromPeer)
attr title "packets received: without retry, vector(packetBytes)"
vector 171 Scenario.node[0].wlan[0].mac packetSentToUpper:vector(packetBytes) ETV
attr interpolationmode none
attr title "packets sent to upper layer, vector(packetBytes)"
vector 172 Scenario.node[4].wlan[0].mac.dcf.channelAccess.pendingQueue packetPopped:vector(packetBytes) ETV
attr interpolationmode none
attr title "packet popped, vector(packetBytes)"
vector 173 Scenario.node[4].wlan[0].mac.dcf.channelAccess.pendingQueue queueingTime:vector ETV
attr interpolationmode none
attr source queueingTime(packetPopped)
attr title "queueing times, vector"
attr unit s
vector 174 Scenario.node[4].wlan[0].mac.dcf.channelAccess.inProgressFrames queueLength:vector ETV
attr interpolationmode sample-hold
attr source "count(packetEnqueued) - count(packetDequeued)"
attr title "queue length, vector"
vector 175 Scenario.node[4].wlan[0].mac.dcf datarateSelected:vector ETV
attr interpolationmode none
attr title "datarates selected, vector"
vector 176 Scenario.node[4].wlan[0].mac packetSentToLower:vector(packetBytes) ETV
attr interpolationmode none
attr title "packets sent to lower layer, vector(packetBytes)"
vector 177 Scenario.node[4].wlan[0].mac.dcf frameSequenceActive:vector ETV
attr interpolationmode sample-hold
attr source count(frameSequenceStarted)-count(frameSequenceFinished)
attr title "frame sequence active, vector"
vector 178 Scenario.node[4].wlan[0].radio transmissionState:vector ETV
attr interpolationmode sample-hold
attr source transmissionStateChanged
attr title "Radio transmission state, vector"
vector 179 Scenario.node[4].wlan[0].mac.dcf packetSentToPeer:vector(packetBytes) ETV
attr interpolationmode none
attr title "packets sent, vector(packetBytes)"
vector 180 Scenario.node[4].wlan[0].mac.dcf packetSentToPeerMulticast:vector(packetBytes) ETV
attr interpolationmode none
attr source ieee80211Multicast(packetSentToPeer)
attr title "packets sent: multicast, vector(packetBytes)"
vector 181 Scenario.node[4].wlan[0].mac.dcf packetSentToPeerWithoutRetry:vector(packetBytes) ETV
attr interpolationmode none
attr source ieee80211NotRetry(packetSentToPeer)
attr title "packets sent: without retry, vector(packetBytes)"
vector 182 Scenario.node[4].wlan[0].mac.dcf.channelAccess.inProgressFrames queueingTime:vector ETV
attr interpolationmode none
attr source queueingTime(packetDequeued)
attr title "queueing times, vector"
vector 183 Scenario.node[1].wlan[0].mac packetDropIncorrectlyReceived:vector(packetBytes) ETV
attr interpolationmode none
attr source packetDropReasonIsIncorrectlyReceived(packetDropped)
attr title "packet drops: incorrectly received, vector(packetBytes)"
vector 184 Scenario.node[2].wlan[0].mac packetDropIncorrectlyReceived:vector(packetBytes) ETV
attr interpolationmode none
attr source packetDropReasonIsIncorrectlyReceived(packetDropped)
attr title "packet drops: incorrectly received, vector(packetBytes)"
vector 185 Scenario.node[2].wlan[0].mac.dcf.channelAccess.pendingQueue packetPopped:vector(packetBytes) ETV
attr interpolationmode none
attr title "packet popped, vector(packetBytes)"
vector 186 Scenario.node[2].wlan[0].mac.dcf.channelAccess.pendingQueue queueingTime:vector ETV
attr interpolationmode none
attr source queueingTime(packetPopped)
attr title "queueing times, vector"
attr unit s
vector 187 Scenario.node[2].wlan[0].mac.dcf.channelAccess.inProgressFrames queueLength:vector ETV
attr interpolationmode sample-hold
attr source "count(packetEnqueued) - count(packetDequeued)"
attr title "queue length, vector"
vector 188 Scenario.node[2].wlan[0].mac.dcf datarateSelected:vector ETV
attr interpolationmode none
attr title "datarates selected, vector"
vector 189 Scenario.node[2].wlan[0].mac packetSentToLower:vector(packetBytes) ETV
attr interpolationmode none
attr title "packets sent to lower layer, vector(packetBytes)"
vector 190 Scenario.node[2].wlan[0].mac.dcf frameSequenceActive:vector ETV
attr interpolationmode sample-hold
attr source count(frameSequenceStarted)-count(frameSequenceFinished)
attr title "frame sequence active, vector"
vector 191 Scenario.node[2].wlan[0].radio transmissionState:vector ETV
attr interpolationmode sample-hold
attr source transmissionStateChanged
attr title "Radio transmission state, vector"
vector 192 Scenario.node[2].wlan[0].mac.dcf packetSentToPeer:vector(packetBytes) ETV
attr interpolationmode none
attr title "packets sent, vector(packetBytes)"
vector 193 Scenario.node[2].wlan[0].mac.dcf packetSentToPeerMulticast:vector(packetBytes) ETV
attr interpolationmode none
attr source ieee80211Multicast(packetSentToPeer)
attr title "packets sent: multicast, vector(packetBytes)"
vector 194 Scenario.node[2].wlan[0].mac.dcf packetSentToPeerWithoutRetry:vector(packetBytes) ETV
attr interpolationmode none
attr source ieee80211NotRetry(packetSentToPeer)
attr title "packets sent: without retry, vector(packetBytes)"
vector 195 Scenario.node[2].wlan[0].mac.dcf.channelAccess.inProgressFrames queueingTime:vector ETV
attr interpolationmode none
attr source queueingTime(packetDequeued)
attr title "queueing times, vector"
vector 196 Scenario.node[1].wlan[0].mac.dcf.channelAccess.pendingQueue packetPopped:vector(packetBytes) ETV
attr interpolationmode none
attr title "packet popped, vector(packetBytes)"
vector 197 Scenario.node[1].wlan[0].mac.dcf.channelAccess.pendingQueue queueingTime:vector ETV
attr interpolationmode none
attr source queueingTime(packetPopped)
attr title "queueing times, vector"
attr unit s
vector 198 Scenario.node[1].wlan[0].mac.dcf.channelAccess.inProgressFrames queueLength:vector ETV
attr interpolationmode sample-hold
attr source "count(packetEnqueued) - count(packetDequeued)"
attr title "queue length, vector"
vector 199 Scenario.node[1].wlan[0].mac.dcf datarateSelected:vector ETV
attr interpolationmode none
attr title "datarates selected, vector"
vector 200 Scenario.node[1].wlan[0].mac packetSentToLower:vector(packetBytes) ETV
attr interpolationmode none
attr title "packets sent to lower layer, vector(packetBytes)"
vector 201 Scenario.node[1].wlan[0].mac.dcf frameSequenceActive:vector ETV
attr interpolationmode sample-hold
attr source count(frameSequenceStarted)-count(frameSequenceFinished)
attr title "frame sequence active, vector"
vector 202 Scenario.node[1].wlan[0].radio transmissionState:vector ETV
attr interpolationmode sample-hold
attr source transmissionStateChanged
attr title "Radio transmission state, vector"
vector 203 Scenario.node[1].wlan[0].mac.dcf packetSentToPeer:vector(packetBytes) ETV
attr interpolationmode none
attr title "packets sent, vector(packetBytes)"
vector 204 Scenario.node[1].wlan[0].mac.dcf packetSentToPeerMulticast:vector(packetBytes) ETV
attr interpolationmode none
attr source ieee80211Multicast(packetSentToPeer)
attr title "packets sent: multicast, vector(packetBytes)"
vector 205 Scenario.node[1].wlan[0].mac.dcf packetSentToPeerWithoutRetry:vector(packetBytes) ETV
attr interpolationmode none
attr source ieee80211NotRetry(packetSentToPeer)
attr title "packets sent: without retry, vector(packetBytes)"
vector 206 Scenario.node[1].wlan[0].mac.dcf.channelAccess.inProgressFrames queueingTime:vector ETV
attr interpolationmode none
attr source queueingTime(packetDequeued)
attr title "queueing times, vector"
vector 207 Scenario.node[0].wlan[0].mac packetDropIncorrectlyReceived:vector(packetBytes) ETV
attr interpolationmode none
attr source packetDropReasonIsIncorrectlyReceived(packetDropped)
attr title "packet drops: incorrectly received, vector(packetBytes)"
vector 208 Scenario.node[3].wlan[0].mac packetDropIncorrectlyReceived:vector(packetBytes) ETV
attr interpolationmode none
attr source packetDropReasonIsIncorrectlyReceived(packetDropped)
attr title "packet drops: incorrectly received, vector(packetBytes)"
vector 209 Scenario.node[4].wlan[0].mac packetDropIncorrectlyReceived:vector(packetBytes) ETV
attr interpolationmode none
attr source packetDropReasonIsIncorrectlyReceived(packetDropped)
attr title "packet drops: incorrectly received, vector(packetBytes)"
0	12	1.1	0
0	12	1.1	0
0	12	1.1	2
0	2624	20	3
0	2631	20.000152	2
0	7541	20.000735265529	3
0	7561	20.000887265529	2
0	7569	20.000958300184	3
0	7576	20.001110300184	2
0	7702	20.001968750998	3
0	7709	20.002120750998	2
0	7736	20.002230750998	3
0	7743	20.002382750998	2
0	7877	20.003110475893	3
0	7891	20.003262475893	2
0	8104	20.004779829184	3
0	8119	20.004931829184	2
0	8314	20.006210279998	3
0	8334	20.006362279998	2
0	8349	20.006420736449	3
0	8356	20.006572736449	2
0	8594	20.008087856799	3
0	8614	20.008239856799	2
0	8899	20.01013628728	3
0	8914	20.01028828728	2
0	8926	20.010359299247	3
0	8934	20.010511299247	2
0	9338	20.013363757132	3
0	9345	20.013515757132	2
0	9660	20.015437723721	3
0	9674	20.015589723721	2
0	9687	20.015699735688	3
0	9694	20.015851735688	2
0	9874	20.016946592544	3
0	9882	20.017098592544	2
0	9976	20.017668317439	3
0	9984	20.017820317439	2
0	10149	20.01887573433	3
0	10165	20.01902773433	2
0	10182	20.019177460249	3
0	10189	20.019329460249	2
0	10217	20.019452460249	3
0	10225	20.019604460249	2
0	10416	20.020568911063	3
0	10423	20.020720911063	2
0	10591	20.021684972571	3
0	10599	20.021836972571	2
0	10766	20.022788272755	3
0	10774	20.022940272755	2
0	10801	20.023024272755	3
0	10809	20.023176272755	2
0	11051	20.02462618002	3
0	11066	20.02477818002	2
0	11219	20.025807380923	3
0	11227	20.025959380923	2
0	11393	20.026975785847	3
0	11401	20.027127785847	2
0	11428	20.027224785847	3
0	11437	20.027376785847	2
0	11772	20.029678438522	3
0	11779	20.029830438522	2
0	11810	20.029901438522	3
0	11817	20.030053438522	2
0	11915	20.03058450003	3
0	11923	20.03073650003	2
0	12330	20.033393108355	3
0	12345	20.033545108355	2
0	12362	20.033707834274	3
0	12370	20.033859834274	2
0	12643	20.035558844906	3
0	12650	20.035710844906	2
0	12824	20.036753632333	3
0	12839	20.036905632333	2
0	13134	20.038866784088	3
0	13148	20.039018784088	2
0	13231	20.03954949065	3
0	13239	20.03970149065	2
0	13372	20.040533768146	3
0	13379	20.040685768146	2
0	13580	20.042042156211	3
0	13588	20.042194156211	2
0	13753	20.043275491169	3
0	13761	20.043427491169	2
0	13859	20.043984552677	3
0	13875	20.044136552677	2
0	13997	20.044984818206	3
0	14005	20.045136818206	2
0	14207	20.04651974901	3
0	14222	20.04667174901	2
0	14234	20.0468467869	3
0	14243	20.0469987869	2
0	14305	20.047293493462	3
0	14313	20.047445493462	2
0	14443	20.048290796881	3
0	14451	20.048442796881	2
0	14625	20.049511099289	3
0	14639	20.049663099289	2
0	14652	20.049825117622	3
0	14660	20.049977117622	2
0	14999	20.052174412022	3
0	15007	20.052326412022	2
0	15280	20.05403851926	3
0	15288	20.05419051926	2
0	15350	20.054511750134	3
0	15358	20.054663750134	2
0	15488	20.055495951037	3
0	15496	20.055647951037	2
0	15836	20.057858944567	3
0	15845	20.058010944567	2
0	16041	20.059316297167	3
0	16049	20.059468297167	2
0	16147	20.060038022062	3
0	16154	20.060190022062	2
0	16319	20.061245821456	3
0	16327	20.061397821456	2
0	16531	20.062728696645	3
0	16546	20.062880696645	2
0	16832	20.064789923721	3
0	16840	20.064941923721	2
0	16903	20.065236440643	3
0	16911	20.065388440643	2
0	17148	20.066890358077	3
0	17157	20.067042358077	2
0	17184	20.067113358077	3
0	17191	20.067265358077	2
0	17219	20.067336358077	3
0	17226	20.067488358077	2
0	17254	20.067546358077	3
0	17261	20.067698358077	2
0	17358	20.068216600918	3
0	17366	20.068368600918	2
0	17572	20.069582392327	3
0	17586	20.069734392327	2
0	17599	20.069831531722	3
0	17607	20.069983531722	2
0	17634	20.070067531722	3
0	17642	20.070219531722	2
0	18016	20.072613614899	3
0	18032	20.072765614899	2
0	18194	20.073820933535	3
0	18209	20.073972933535	2
0	18230	20.074096478121	3
0	18237	20.074248478121	2
0	18478	20.075789507459	3
0	18493	20.075941507459	2
0	18505	20.076038519426	3
0	18513	20.076190519426	2
0	18540	20.076261519426	3
0	18548	20.076413519426	2
0	18680	20.077219720329	3
0	18688	20.077371720329	2
0	18895	20.078598171143	3
0	18908	20.078750171143	2
0	19104	20.080003215698	3
0	19111	20.080155215698	2
0	19138	20.080213215698	3
0	19146	20.080365215698	2
0	19346	20.081657081025	3
0	19355	20.081809081025	2
0	19417	20.082116787587	3
0	19424	20.082268787587	2
0	19554	20.083182575014	3
0	19562	20.083334575014	2
0	19836	20.085176014593	3
0	19853	20.085328014593	2
0	19861	20.085386256504	3
0	19869	20.085538256504	2
0	20107	20.087001267136	3
0	20115	20.087153267136	2
0	20279	20.088182448482	3
0	20287	20.088334448482	2
0	20314	20.088431448482	3
0	20322	20.088583448482	2
0	20565	20.090244667087	3
0	20573	20.090396667087	2
0	20708	20.091203423841	3
0	20723	20.091355423841	2
0	20770	20.091792940763	3
0	20778	20.091944940763	2
0	20981	20.09318446017	3
0	20989	20.09333646017	2
0	21051	20.093643977092	3
0	21059	20.093795977092	2
0	21086	20.093879977092	3
0	21094	20.094031977092	2
0	21192	20.094576242621	3
0	21199	20.094728242621	2
0	21293	20.095311485462	3
0	21302	20.095463485462	2
0	21400	20.096085728303	3
0	21408	20.096237728303	2
0	21540	20.097082971144	3
0	21548	20.097234971144	2
0	21575	20.097305971144	3
0	21584	20.097457971144	2
0	21681	20.098015213985	3
0	21689	20.098167213985	2
0	21716	20.098225213985	3
0	21724	20.098377213985	2
0	21858	20.099248456826	3
0	21866	20.099400456826	2
0	22035	20.100468704228	3
0	22051	20.100620704228	2
1	12	1.1	3
2	12	1.1	1
2	2624	20	0
2	2631	20.000152	1
2	7471	20.000224023618	3
2	7492	20.000376023618	1
2	7505	20.000499265529	3
2	7526	20.000651265529	1
2	7541	20.000735265529	0
2	7561	20.000887265529	2
2	7562	20.000887300184	1
2	7569	20.000958300184	0
2	7576	20.001110300184	1
2	7608	20.001195006746	3
2	7629	20.001347006746	1
2	7644	20.001431025079	3
2	7657	20.001583025079	2
2	7665	20.001583600487	1
2	7673	20.001745750998	3
2	7694	20.001897750998	1
2	7702	20.001968750998	0
2	7709	20.002120750998	1
2	7736	20.002230750998	0
2	7743	20.002382750998	1
2	7773	20.00244126792	3
2	7784	20.00259326792	1
2	7807	20.00265126792	3
2	7818	20.00280326792	1
2	7843	20.002887475893	3
2	7864	20.003039475893	1
2	7877	20.003110475893	0
2	7891	20.003262475893	2
2	7892	20.003262494226	1
2	7915	20.003454499511	3
2	7929	20.003606499511	2
2	7931	20.003606706767	1
2	7939	20.003664741422	3
2	7960	20.003816741422	1
2	7973	20.003900741422	3
2	7994	20.004052741422	1
2	8007	20.004123810851	3
2	8028	20.004275810851	1
2	8039	20.004346829184	3
2	8050	20.004498829184	1
2	8073	20.004569829184	3
2	8084	20.004721829184	1
2	8104	20.004779829184	0
2	8119	20.004931829184	2
2	8132	20.004932555103	1
2	8140	20.005030060058	3
2	8161	20.005182060058	1
2	8172	20.005279072025	3
2	8183	20.005431072025	1
2	8208	20.005528279998	3
2	8229	20.005680279998	1
2	8242	20.005738279998	3
2	8263	20.005890279998	1
2	8276	20.005961279998	3
2	8297	20.006113279998	1
2	8314	20.006210279998	0
2	8334	20.006362279998	2
2	8344	20.006362736449	1
2	8349	20.006420736449	0
2	8356	20.006572736449	1
2	8388	20.006683967323	3
2	8409	20.006835967323	1
2	8422	20.006920036752	3
2	8443	20.007072036752	1
2	8454	20.007169055085	3
2	8465	20.007321055085	1
2	8490	20.007392263058	3
2	8511	20.007544263058	1
2	8524	20.007641263058	3
2	8545	20.007793263058	1
2	8558	20.007864856799	3
2	8579	20.008016856799	1
2	8594	20.008087856799	0
2	8614	20.008239856799	2
2	8615	20.008239891454	1
2	8627	20.008324880417	3
2	8648	20.008476880417	1
2	8659	20.008547918307	3
2	8670	20.008699918307	1
2	8693	20.008757918307	3
2	8704	20.008909918307	1
2	8727	20.008967918307	3
2	8738	20.009119918307	1
2	8763	20.009191462893	3
2	8784	20.009343462893	1
2	8795	20.009440500783	3
2	8806	20.009592500783	1
2	8831	20.009677045369	3
2	8852	20.009829045369	1
2	8865	20.00990028728	3
2	8886	20.01005228728	1
2	8899	20.01013628728	0
2	8914	20.01028828728	2
2	8915	20.010288299247	1
2	8926	20.010359299247	0
2	8934	20.010511299247	1
2	8966	20.010596005809	3
2	8988	20.010748005809	1
2	9003	20.010819024142	3
2	9018	20.010971024142	2
2	9026	20.01097146226	1
2	9033	20.01114650015	3
2	9044	20.01129850015	1
2	9070	20.011370044736	3
2	9091	20.011522044736	1
2	9113	20.011606184131	3
2	9127	20.011758184131	2
2	9129	20.011758286647	1
2	9137	20.011829356076	3
2	9159	20.011981356076	1
2	9172	20.012052356076	3
2	9194	20.012204356076	1
2	9209	20.012340374409	3
2	9223	20.012492374409	2
2	9231	20.012492949817	1
2	9245	20.012667961784	3
2	9260	20.012819961784	2
2	9264	20.012820100328	1
2	9272	20.012917687703	3
2	9294	20.013069687703	1
2	9307	20.013140757132	3
2	9330	20.013292757132	1
2	9338	20.013363757132	0
2	9345	20.013515757132	1
2	9375	20.013587274054	3
2	9388	20.013739274054	1
2	9412	20.013823274054	3
2	9423	20.013975274054	1
2	9448	20.01404681864	3
2	9470	20.01419881864	1
2	9483	20.01425681864	3
2	9505	20.01440881864	1
2	9518	20.014480060551	3
2	9540	20.014632060551	1
2	9554	20.014729060551	3
2	9575	20.014881060551	1
2	9590	20.01496512998	3
2	9611	20.01511712998	1
2	9625	20.015214723721	3
2	9646	20.015366723721	1
2	9660	20.015437723721	0
2	9674	20.015589723721	2
2	9675	20.015589735688	1
2	9687	20.015699735688	0
2	9694	20.015851735688	1
2	9727	20.015962759306	3
2	9749	20.016114759306	1
2	9760	20.016198797196	3
2	9771	20.016350797196	1
2	9808	20.016435005169	3
2	9828	20.016587005169	2
2	9836	20.016587523115	1
2	9844	20.016697592544	3
2	9866	20.016849592544	1
2	9874	20.016946592544	0
2	9882	20.017098592544	1
2	9917	20.017170109466	3
2	9930	20.017322109466	2
2	9938	20.017322299106	1
2	9946	20.017432317439	3
2	9968	20.017584317439	1
2	9976	20.017668317439	0
2	9984	20.017820317439	1
2	10016	20.017905024001	3
2	10038	20.018057024001	1
2	10058	20.018154480452	3
2	10074	20.018306480452	2
2	10076	20.018306617742	1
2	10084	20.018416722363	3
2	10106	20.018568722363	1
2	10117	20.01863973433	3
2	10129	20.01879173433	1
2	10149	20.01887573433	0
2	10165	20.01902773433	2
2	10178	20.019028460249	1
2	10182	20.019177460249	0
2	10189	20.019329460249	1
2	10217	20.019452460249	0
2	10225	20.019604460249	1
2	10264	20.019701977171	3
2	10291	20.019853977171	2
2	10307	20.019854691123	1
2	10313	20.01991270309	3
2	10325	20.02006470309	1
2	10350	20.020135911063	3
2	10371	20.020287911063	1
2	10386	20.020345911063	3
2	10407	20.020497911063	1
2	10416	20.020568911063	0
2	10423	20.020720911063	1
2	10454	20.020792427985	3
2	10465	20.020944427985	1
2	10492	20.021028972571	3
2	10513	20.021180972571	1
2	10526	20.021238972571	3
2	10548	20.021390972571	1
2	10561	20.021461972571	3
2	10583	20.021613972571	1
2	10591	20.021684972571	0
2	10599	20.021836972571	1
2	10631	20.021908996189	3
2	10653	20.022060996189	1
2	10666	20.0221322381	3
2	10688	20.0222842381	1
2	10701	20.0223422381	3
2	10724	20.0224942381	1
2	10737	20.022565272755	3
2	10758	20.022717272755	1
2	10766	20.022788272755	0
2	10774	20.022940272755	1
2	10801	20.023024272755	0
2	10809	20.023176272755	1
2	10841	20.023235296373	3
2	10863	20.023387296373	1
2	10876	20.023484435768	3
2	10898	20.023636435768	1
2	10911	20.023694435768	3
2	10933	20.023846435768	1
2	10944	20.023917454101	3
2	10956	20.024069454101	1
2	10979	20.024192454101	3
2	10991	20.024344454101	1
2	11016	20.02440318002	3
2	11038	20.02455518002	1
2	11051	20.02462618002	0
2	11066	20.02477818002	2
2	11071	20.024778249449	1
2	11083	20.024836886582	3
2	11105	20.024988886582	1
2	11118	20.025072886582	3
2	11140	20.025224886582	1
2	11153	20.025296343033	3
2	11175	20.025448343033	1
2	11186	20.025571380923	3
2	11199	20.025723380923	1
2	11219	20.025807380923	0
2	11227	20.025959380923	1
2	11264	20.026057087485	3
2	11279	20.026209087485	2
2	11283	20.026209404541	1
2	11291	20.026293543936	3
2	11313	20.026445543936	1
2	11326	20.026516785847	3
2	11350	20.026668785847	1
2	11363	20.026752785847	3
2	11385	20.026904785847	1
2	11393	20.026975785847	0
2	11401	20.027127785847	1
2	11428	20.027224785847	0
2	11437	20.027376785847	1
2	11474	20.027461492409	3
2	11489	20.027613492409	2
2	11493	20.027613809465	1
2	11501	20.02771094886	3
2	11523	20.02786294886	1
2	11534	20.02793398675	3
2	11546	20.02808598675	1
2	11571	20.028157531336	3
2	11594	20.028309531336	1
2	11607	20.028406531336	3
2	11628	20.028558531336	1
2	11649	20.028655670731	3
2	11664	20.028807670731	2
2	11666	20.028807773247	1
2	11674	20.028879264472	3
2	11697	20.029031264472	1
2	11716	20.029102299127	3
2	11730	20.029254299127	2
2	11733	20.029254333901	1
2	11742	20.029429438522	3
2	11763	20.029581438522	1
2	11772	20.029678438522	0
2	11779	20.029830438522	1
2	11810	20.029901438522	0
2	11817	20.030053438522	1
2	11850	20.03012546214	3
2	11871	20.03027746214	1
2	11883	20.03034850003	3
2	11895	20.03050050003	1
2	11915	20.03058450003	0
2	11923	20.03073650003	1
2	11959	20.030821206592	3
2	11974	20.030973206592	2
2	11979	20.030973730904	1
2	11987	20.031135800333	3
2	12009	20.031287800333	1
2	12022	20.031371800333	3
2	12044	20.031523800333	1
2	12055	20.031581818666	3
2	12067	20.031733818666	1
2	12090	20.031791818666	3
2	12102	20.031943818666	1
2	12125	20.032001818666	3
2	12137	20.032153818666	1
2	12162	20.032225544585	3
2	12184	20.032377544585	1
2	12197	20.032435544585	3
2	12219	20.032587544585	1
2	12238	20.03267157924	3
2	12253	20.03282357924	2
2	12256	20.032823614014	1
2	12264	20.032921070465	3
2	12286	20.033073070465	1
2	12297	20.033170108355	3
2	12309	20.033322108355	1
2	12330	20.033393108355	0
2	12345	20.033545108355	2
2	12358	20.033545834274	1
2	12362	20.033707834274	0
2	12370	20.033859834274	1
2	12400	20.033944351196	3
2	12412	20.034096351196	1
2	12437	20.034181077115	3
2	12458	20.034333077115	1
2	12472	20.03441711177	3
2	12494	20.03456911177	1
2	12507	20.034640251165	3
2	12530	20.034792251165	1
2	12543	20.034876251165	3
2	12565	20.035028251165	1
2	12578	20.035125251165	3
2	12600	20.035277251165	1
2	12613	20.035335844906	3
2	12635	20.035487844906	1
2	12643	20.035558844906	0
2	12650	20.035710844906	1
2	12683	20.03578307578	3
2	12704	20.03593507578	1
2	12716	20.036019087747	3
2	12727	20.036171087747	1
2	12752	20.036229087747	3
2	12763	20.036381087747	1
2	12789	20.036478632333	3
2	12810	20.036630632333	1
2	12824	20.036753632333	0
2	12839	20.036905632333	2
2	12840	20.036905670223	1
2	12854	20.037003149255	3
2	12866	20.037155149255	1
2	12891	20.037239357228	3
2	12913	20.037391357228	1
2	12933	20.037462813679	3
2	12949	20.037614813679	2
2	12951	20.037614950969	1
2	12959	20.037698985624	3
2	12980	20.037850985624	1
2	12994	20.037960985624	3
2	13016	20.038112985624	1
2	13027	20.038184023514	3
2	13039	20.038336023514	1
2	13064	20.038407749433	3
2	13086	20.038559749433	1
2	13099	20.038630784088	3
2	13120	20.038782784088	1
2	13134	20.038866784088	0
2	13148	20.039018784088	2
2	13153	20.039018923483	1
2	13166	20.03907749065	3
2	13187	20.03922949065	1
2	13202	20.03932649065	3
2	13223	20.03947849065	1
2	13231	20.03954949065	0
2	13239	20.03970149065	1
2	13269	20.039812007572	3
2	13281	20.039964007572	1
2	13306	20.040048733491	3
2	13328	20.040200733491	1
2	13342	20.040284768146	3
2	13363	20.040436768146	1
2	13372	20.040533768146	0
2	13379	20.040685768146	1
2	13416	20.040757474708	3
2	13430	20.040909474708	2
2	13435	20.04090999902	1
2	13445	20.041111068449	3
2	13466	20.041263068449	1
2	13480	20.041347137878	3
2	13501	20.041499137878	1
2	13515	20.041557137878	3
2	13536	20.041709137878	1
2	13548	20.041780156211	3
2	13559	20.041932156211	1
2	13580	20.042042156211	0
2	13588	20.042194156211	1
2	13627	20.042266179829	3
2	13642	20.042418179829	2
2	13644	20.042418387085	1
2	13653	20.04259342174	3
2	13674	20.04274542174	1
2	13687	20.04280342174	3
2	13710	20.04295542174	1
2	13723	20.043039491169	3
2	13745	20.043191491169	1
2	13753	20.043275491169	0
2	13761	20.043427491169	1
2	13793	20.043499514787	3
2	13816	20.043651514787	1
2	13827	20.043748552677	3
2	13839	20.043900552677	1
2	13859	20.043984552677	0
2	13875	20.044136552677	2
2	13891	20.044137097263	1
2	13900	20.044208576295	3
2	13922	20.044360576295	1
2	13935	20.044418576295	3
2	13957	20.044570576295	1
2	13977	20.04464171569	3
2	13992	20.04479371569	2
2	13994	20.044793818206	1
2	13997	20.044984818206	0
2	14005	20.045136818206	1
2	14041	20.045208524768	3
2	14056	20.045360524768	2
2	14061	20.04536104908	1
2	14069	20.045484118509	3
2	14091	20.045636118509	1
2	14110	20.045707153164	3
2	14125	20.045859153164	2
2	14128	20.045859187938	1
2	14137	20.046008292559	3
2	14158	20.046160292559	1
2	14172	20.04629674901	3
2	14194	20.04644874901	1
2	14207	20.04651974901	0
2	14222	20.04667174901	2
2	14223	20.0466717869	1
2	14234	20.0468467869	0
2	14243	20.0469987869	1
2	14275	20.047070493462	3
2	14297	20.047222493462	1
2	14305	20.047293493462	0
2	14313	20.047445493462	1
2	14343	20.047556010384	3
2	14356	20.047708010384	1
2	14388	20.04777955497	3
2	14403	20.04793155497	2
2	14405	20.047931736303	1
2	14413	20.048067796881	3
2	14435	20.048219796881	1
2	14443	20.048290796881	0
2	14451	20.048442796881	1
2	14483	20.048514503443	3
2	14505	20.048666503443	1
2	14518	20.048763959894	3
2	14540	20.048915959894	1
2	14553	20.048986959894	3
2	14576	20.049138959894	1
2	14590	20.049262099289	3
2	14611	20.049414099289	1
2	14625	20.049511099289	0
2	14639	20.049663099289	2
2	14640	20.049663117622	1
2	14652	20.049825117622	0
2	14660	20.049977117622	1
2	14692	20.050049348496	3
2	14714	20.050201348496	1
2	14727	20.050285417925	3
2	14749	20.050437417925	1
2	14760	20.050508436258	3
2	14771	20.050660436258	1
2	14795	20.050744436258	3
2	14806	20.050896436258	1
2	14833	20.050954644231	3
2	14854	20.051106644231	1
2	14867	20.051178100682	3
2	14889	20.051330100682	1
2	14909	20.051414240077	3
2	14924	20.051566240077	2
2	14926	20.051566342593	1
2	14934	20.051702412022	3
2	14956	20.051854412022	1
2	14970	20.051951412022	3
2	14991	20.052103412022	1
2	14999	20.052174412022	0
2	15007	20.052326412022	1
2	15039	20.052411642896	3
2	15062	20.052563642896	1
2	15075	20.052647677551	3
2	15097	20.052799677551	1
2	15110	20.052870816946	3
2	15132	20.053022816946	1
2	15143	20.053119835279	3
2	15155	20.053271835279	1
2	15180	20.053343379865	3
2	15202	20.053495379865	1
2	15215	20.053553379865	3
2	15237	20.053705379865	1
2	15250	20.05380251926	3
2	15272	20.05395451926	1
2	15280	20.05403851926	0
2	15288	20.05419051926	1
2	15320	20.054262750134	3
2	15342	20.054414750134	1
2	15350	20.054511750134	0
2	15358	20.054663750134	1
2	15388	20.054735267056	3
2	15400	20.054887267056	1
2	15430	20.054958475029	3
2	15444	20.055110475029	2
2	15448	20.055110811642	1
2	15457	20.055233951037	3
2	15480	20.055385951037	1
2	15488	20.055495951037	0
2	15496	20.055647951037	1
2	15528	20.055720181911	3
2	15551	20.055872181911	1
2	15564	20.055969216566	3
2	15585	20.056121216566	1
2	15599	20.056205216566	3
2	15620	20.056357216566	1
2	15631	20.056415254456	3
2	15643	20.056567254456	1
2	15668	20.056651462429	3
2	15691	20.056803462429	1
2	15706	20.056874480762	3
2	15720	20.057026480762	2
2	15728	20.05702705617	1
2	15736	20.057150206681	3
2	15758	20.057302206681	1
2	15769	20.057386218648	3
2	15781	20.057538218648	1
2	15806	20.057609944567	3
2	15828	20.057761944567	1
2	15836	20.057858944567	0
2	15845	20.058010944567	1
2	15877	20.058083175441	3
2	15899	20.058235175441	1
2	15918	20.058306210096	3
2	15933	20.058458210096	2
2	15936	20.05845824487	1
2	15949	20.058555349491	3
2	15964	20.058707349491	2
2	15968	20.058707701321	1
2	15976	20.058856840716	3
2	15998	20.059008840716	1
2	16011	20.059093297167	3
2	16033	20.059245297167	1
2	16041	20.059316297167	0
2	16049	20.059468297167	1
2	16079	20.059591814089	3
2	16092	20.059743814089	1
2	16117	20.059815022062	3
2	16138	20.059967022062	1
2	16147	20.060038022062	0
2	16154	20.060190022062	1
2	16189	20.060261538984	3
2	16202	20.060413538984	2
2	16210	20.06041404568	1
2	16217	20.06049808357	3
2	16228	20.06065008357	1
2	16254	20.060721809489	3
2	16275	20.060873809489	1
2	16287	20.060957821456	3
2	16299	20.061109821456	1
2	16319	20.061245821456	0
2	16327	20.061397821456	1
2	16359	20.061469845074	3
2	16381	20.061621845074	1
2	16397	20.061705882964	3
2	16410	20.061857882964	2
2	16417	20.061857984469	1
2	16426	20.062007090937	3
2	16448	20.062159090937	1
2	16461	20.062269684678	3
2	16483	20.062421684678	1
2	16494	20.062505696645	3
2	16506	20.062657696645	1
2	16531	20.062728696645	0
2	16546	20.062880696645	2
2	16551	20.062880904618	1
2	16563	20.062952403207	3
2	16585	20.063104403207	1
2	16598	20.063188403207	3
2	16620	20.063340403207	1
2	16633	20.063398859658	3
2	16655	20.063550859658	1
2	16671	20.063634897548	3
2	16684	20.063786897548	2
2	16691	20.063786999053	1
2	16698	20.063858017386	3
2	16710	20.064010017386	1
2	16735	20.064120225359	3
2	16757	20.064272225359	1
2	16777	20.06435668181	3
2	16792	20.06450868181	2
2	16794	20.0645088191	1
2	16802	20.064566923721	3
2	16824	20.064718923721	1
2	16832	20.064789923721	0
2	16840	20.064941923721	1
2	16870	20.065013440643	3
2	16883	20.065165440643	1
2	16903	20.065236440643	0
2	16911	20.065388440643	1
2	16943	20.065460464261	3
2	16964	20.065612464261	1
2	16976	20.065709502151	3
2	16987	20.065861502151	1
2	17013	20.065946046737	3
2	17034	20.066098046737	1
2	17048	20.066156046737	3
2	17069	20.066308046737	1
2	17083	20.066392288648	3
2	17104	20.066544288648	1
2	17118	20.066628358077	3
2	17139	20.066780358077	1
2	17148	20.066890358077	0
2	17157	20.067042358077	1
2	17184	20.067113358077	0
2	17191	20.067265358077	1
2	17219	20.067336358077	0
2	17226	20.067488358077	1
2	17254	20.067546358077	0
2	17261	20.067698358077	1
2	17293	20.067757588951	3
2	17315	20.067909588951	1
2	17326	20.067993600918	3
2	17338	20.068145600918	1
2	17358	20.068216600918	0
2	17366	20.068368600918	1
2	17398	20.068440624536	3
2	17421	20.068592624536	1
2	17434	20.068689763931	3
2	17457	20.068841763931	1
2	17477	20.068913220382	3
2	17492	20.069065220382	2
2	17494	20.069065357672	1
2	17502	20.069123392327	3
2	17524	20.069275392327	1
2	17537	20.069372392327	3
2	17559	20.069524392327	1
2	17572	20.069582392327	0
2	17586	20.069734392327	2
2	17591	20.069734531722	1
2	17599	20.069831531722	0
2	17607	20.069983531722	1
2	17634	20.070067531722	0
2	17642	20.070219531722	1
2	17672	20.070278048644	3
2	17685	20.070430048644	1
2	17710	20.070540774563	3
2	17732	20.070692774563	1
2	17745	20.070763774563	3
2	17767	20.070915774563	1
2	17780	20.070973809218	3
2	17802	20.071125809218	1
2	17815	20.071197051129	3
2	17836	20.071349051129	1
2	17850	20.071420051129	3
2	17871	20.071572051129	1
2	17891	20.071630085784	3
2	17905	20.071782085784	2
2	17908	20.071782120558	1
2	17917	20.071892577009	3
2	17938	20.072044577009	1
2	17951	20.072128577009	3
2	17973	20.072280577009	1
2	17984	20.072390614899	3
2	17996	20.072542614899	1
2	18016	20.072613614899	0
2	18032	20.072765614899	2
2	18048	20.072766159485	1
2	18059	20.072902845773	3
2	18080	20.073054845773	1
2	18094	20.073138915202	3
2	18115	20.073290915202	1
2	18129	20.073374915202	3
2	18150	20.073526915202	1
2	18162	20.073584933535	3
2	18173	20.073736933535	1
2	18194	20.073820933535	0
2	18209	20.073972933535	2
2	18225	20.073973478121	1
2	18230	20.074096478121	0
2	18237	20.074248478121	1
2	18277	20.074333501739	3
2	18291	20.074485501739	2
2	18293	20.074485708995	1
2	18303	20.07462174365	3
2	18325	20.07477374365	1
2	18338	20.07484474365	3
2	18360	20.07499674365	1
2	18373	20.07513274365	3
2	18395	20.07528474365	1
2	18406	20.07534278154	3
2	18418	20.07549478154	1
2	18443	20.075566507459	3
2	18465	20.075718507459	1
2	18478	20.075789507459	0
2	18493	20.075941507459	2
2	18494	20.075941519426	1
2	18505	20.076038519426	0
2	18513	20.076190519426	1
2	18540	20.076261519426	0
2	18548	20.076413519426	1
2	18580	20.076485225988	3
2	18602	20.076637225988	1
2	18615	20.076734682439	3
2	18637	20.076886682439	1
2	18648	20.076983720329	3
2	18660	20.077135720329	1
2	18680	20.077219720329	0
2	18688	20.077371720329	1
2	18720	20.077443951203	3
2	18742	20.077595951203	1
2	18753	20.07767996317	3
2	18765	20.07783196317	1
2	18789	20.07791596317	3
2	18800	20.07806796317	1
2	18823	20.07812596317	3
2	18835	20.07827796317	1
2	18860	20.078336171143	3
2	18882	20.078488171143	1
2	18895	20.078598171143	0
2	18908	20.078750171143	2
2	18921	20.078750627594	1
2	18931	20.078822402017	3
2	18953	20.078974402017	1
2	18968	20.079097471446	3
2	18989	20.079249471446	1
2	19001	20.079333489779	3
2	19012	20.079485489779	1
2	19036	20.079543489779	3
2	19047	20.079695489779	1
2	19074	20.079780215698	3
2	19095	20.079932215698	1
2	19104	20.080003215698	0
2	19111	20.080155215698	1
2	19138	20.080213215698	0
2	19146	20.080365215698	1
2	19179	20.080437239316	3
2	19200	20.080589239316	1
2	19211	20.080673277206	3
2	19223	20.080825277206	1
2	19253	20.080909485179	3
2	19268	20.081061485179	2
2	19272	20.081061821792	1
2	19281	20.08117194163	3
2	19302	20.08132394163	1
2	19316	20.081434081025	3
2	19338	20.081586081025	1
2	19346	20.081657081025	0
2	19355	20.081809081025	1
2	19387	20.081893787587	3
2	19409	20.082045787587	1
2	19417	20.082116787587	0
2	19424	20.082268787587	1
2	19457	20.082341018461	3
2	19478	20.082493018461	1
2	19490	20.082590030428	3
2	19501	20.082742030428	1
2	19532	20.082839238401	3
2	19546	20.082991238401	2
2	19550	20.082991575014	1
2	19554	20.083182575014	0
2	19562	20.083334575014	1
2	19594	20.083406281576	3
2	19616	20.083558281576	1
2	19629	20.083616281576	3
2	19651	20.083768281576	1
2	19664	20.083865281576	3
2	19686	20.084017281576	1
2	19706	20.084075738027	3
2	19720	20.084227738027	2
2	19722	20.084227875317	1
2	19738	20.084376909972	3
2	19754	20.084528909972	2
2	19756	20.084528979938	1
2	19764	20.084717014593	3
2	19786	20.084869014593	1
2	19799	20.084940014593	3
2	19821	20.085092014593	1
2	19836	20.085176014593	0
2	19853	20.085328014593	2
2	19854	20.085328256504	1
2	19861	20.085386256504	0
2	19869	20.085538256504	1
2	19899	20.085622773426	3
2	19911	20.085774773426	1
2	19936	20.085859499345	3
2	19959	20.086011499345	1
2	19972	20.086082568774	3
2	19994	20.086234568774	1
2	20007	20.086306025225	3
2	20029	20.086458025225	1
2	20042	20.086516025225	3
2	20064	20.086668025225	1
2	20077	20.086752267136	3
2	20099	20.086904267136	1
2	20107	20.087001267136	0
2	20115	20.087153267136	1
2	20150	20.087250784058	3
2	20163	20.087402784058	2
2	20171	20.087402973698	1
2	20179	20.087512992031	3
2	20201	20.087664992031	1
2	20214	20.087748992031	3
2	20236	20.087900992031	1
2	20249	20.087959448482	3
2	20271	20.088111448482	1
2	20279	20.088182448482	0
2	20287	20.088334448482	1
2	20314	20.088431448482	0
2	20322	20.088583448482	1
2	20354	20.088642155044	3
2	20377	20.088794155044	1
2	20396	20.088878173377	3
2	20416	20.089030173377	2
2	20427	20.089030748785	1
2	20433	20.089179760752	3
2	20445	20.089331760752	1
2	20475	20.089402968725	3
2	20490	20.089554968725	2
2	20494	20.089555305338	1
2	20502	20.089613425176	3
2	20524	20.089765425176	1
2	20544	20.089888564571	3
2	20559	20.090040564571	2
2	20561	20.090040667087	1
2	20565	20.090244667087	0
2	20573	20.090396667087	1
2	20605	20.090468690705	3
2	20627	20.090620690705	1
2	20647	20.0907178301	3
2	20662	20.0908698301	2
2	20664	20.090869932616	1
2	20672	20.090980423841	3
2	20695	20.091132423841	1
2	20708	20.091203423841	0
2	20723	20.091355423841	2
2	20724	20.091355435808	1
2	20738	20.091569940763	3
2	20750	20.091721940763	1
2	20770	20.091792940763	0
2	20778	20.091944940763	1
2	20810	20.092043171637	3
2	20832	20.092195171637	1
2	20845	20.092266206292	3
2	20867	20.092418206292	1
2	20881	20.092515448203	3
2	20902	20.092667448203	1
2	20915	20.092738448203	3
2	20937	20.092890448203	1
2	20948	20.09296146017	3
2	20961	20.09311346017	1
2	20981	20.09318446017	0
2	20989	20.09333646017	1
2	21019	20.093420977092	3
2	21031	20.093572977092	1
2	21051	20.093643977092	0
2	21059	20.093795977092	1
2	21086	20.093879977092	0
2	21094	20.094031977092	1
2	21126	20.09413000071	3
2	21149	20.09428200071	1
2	21162	20.094353242621	3
2	21183	20.094505242621	1
2	21192	20.094576242621	0
2	21199	20.094728242621	1
2	21229	20.094799759543	3
2	21245	20.094951759543	2
2	21255	20.094952473495	1
2	21263	20.095075485462	3
2	21285	20.095227485462	1
2	21293	20.095311485462	0
2	21302	20.095463485462	1
2	21333	20.095613002384	3
2	21344	20.095765002384	1
2	21370	20.095836728303	3
2	21391	20.095988728303	1
2	21400	20.096085728303	0
2	21408	20.096237728303	1
2	21438	20.096335245225	3
2	21450	20.096487245225	1
2	21473	20.096571245225	3
2	21485	20.096723245225	1
2	21510	20.096833971144	3
2	21532	20.096985971144	1
2	21540	20.097082971144	0
2	21548	20.097234971144	1
2	21575	20.097305971144	0
2	21584	20.097457971144	1
2	21616	20.097556202018	3
2	21638	20.097708202018	1
2	21649	20.097792213985	3
2	21661	20.097944213985	1
2	21681	20.098015213985	0
2	21689	20.098167213985	1
2	21716	20.098225213985	0
2	21724	20.098377213985	1
2	21754	20.098487730907	3
2	21766	20.098639730907	1
2	21791	20.098737456826	3
2	21813	20.098889456826	1
2	21826	20.098947456826	3
2	21850	20.099099456826	1
2	21858	20.099248456826	0
2	21866	20.099400456826	1
2	21896	20.099471973748	3
2	21909	20.099623973748	1
2	21934	20.099708699667	3
2	21956	20.099860699667	1
2	21967	20.099931711634	3
2	21980	20.100083711634	1
2	22003	20.100154704228	3
2	22014	20.100306704228	1
2	22035	20.100468704228	0
2	22051	20.100620704228	2
2	22064	20.100621476842	1
2	22072	20.100796966132	3
2	22094	20.100948966132	1
2	22105	20.101032978952	3
2	22117	20.101184978952	1
2	22142	20.101411978952	3
2	22153	20.101563978952	1
2	22177	20.101738978952	3
2	22188	20.101890978952	1
2	22212	20.102026978952	3
2	22223	20.102178978952	1
3	12	1.1	15
4	25	2.1	0
4	25	2.1	0
4	25	2.1	2
4	7637	20.001430766618	3
4	7652	20.001582766618	2
4	7770	20.002441009459	3
4	7777	20.002593009459	2
4	7804	20.002651009459	3
4	7811	20.002803009459	2
4	7872	20.003110235765	3
4	7887	20.003262235765	2
4	8036	20.004346570723	3
4	8043	20.004498570723	2
4	8070	20.004569570723	3
4	8077	20.004721570723	2
4	8169	20.005278813564	3
4	8176	20.005430813564	2
4	8305	20.00621003987	3
4	8328	20.00636203987	2
4	8451	20.007168796624	3
4	8458	20.007320796624	2
4	8656	20.008547659846	3
4	8663	20.008699659846	2
4	8690	20.008757659846	3
4	8697	20.008909659846	2
4	8724	20.008967659846	3
4	8731	20.009119659846	2
4	8792	20.009440242322	3
4	8799	20.009592242322	2
4	8894	20.010136040786	3
4	8910	20.010288040786	2
4	8996	20.010818765681	3
4	9013	20.010970765681	2
4	9030	20.011146241689	3
4	9037	20.011298241689	2
4	9202	20.012340115948	3
4	9218	20.012492115948	2
4	9240	20.012667703323	3
4	9255	20.012819703323	2
4	9372	20.013587015593	3
4	9381	20.013739015593	2
4	9409	20.013823015593	3
4	9416	20.013975015593	2
4	9655	20.015437477227	3
4	9670	20.015589477227	2
4	9757	20.016198538735	3
4	9764	20.016350538735	2
4	9909	20.017169851005	3
4	9925	20.017321851005	2
4	10114	20.018639475869	3
4	10122	20.018791475869	2
4	10252	20.01970171871	3
4	10284	20.01985371871	2
4	10310	20.019912444629	3
4	10318	20.020064444629	2
4	10451	20.020792169524	3
4	10458	20.020944169524	2
4	10941	20.02391719564	3
4	10949	20.02406919564	2
4	10976	20.02419219564	3
4	10984	20.02434419564	2
4	11183	20.025571122462	3
4	11192	20.025723122462	2
4	11531	20.027933728289	3
4	11539	20.028085728289	2
4	11880	20.030348241569	3
4	11888	20.030500241569	2
4	12052	20.031581560205	3
4	12060	20.031733560205	2
4	12087	20.031791560205	3
4	12095	20.031943560205	2
4	12122	20.032001560205	3
4	12130	20.032153560205	2
4	12294	20.033169849894	3
4	12302	20.033321849894	2
4	12397	20.033944092735	3
4	12405	20.034096092735	2
4	12713	20.036018829286	3
4	12720	20.036170829286	2
4	12749	20.036228829286	3
4	12756	20.036380829286	2
4	12819	20.036753411762	3
4	12835	20.036905411762	2
4	12851	20.037002890794	3
4	12859	20.037154890794	2
4	13024	20.038183765053	3
4	13032	20.038335765053	2
4	13266	20.039811749111	3
4	13274	20.039963749111	2
4	13545	20.04177989775	3
4	13552	20.04193189775	2
4	13824	20.043748294216	3
4	13832	20.043900294216	2
4	14202	20.046519528439	3
4	14218	20.046671528439	2
4	14340	20.047555751923	3
4	14349	20.047707751923	2
4	14620	20.049510859161	3
4	14635	20.049662859161	2
4	14757	20.050508177797	3
4	14764	20.050660177797	2
4	14792	20.050744177797	3
4	14799	20.050896177797	2
4	15140	20.053119576818	3
4	15148	20.053271576818	2
4	15385	20.054735008595	3
4	15393	20.054887008595	2
4	15628	20.056414995995	3
4	15636	20.056566995995	2
4	15699	20.056874222301	3
4	15715	20.057026222301	2
4	15766	20.057385960187	3
4	15774	20.057537960187	2
4	16076	20.059591555628	3
4	16085	20.059743555628	2
4	16182	20.060261280523	3
4	16197	20.060413280523	2
4	16214	20.060497825109	3
4	16221	20.060649825109	2
4	16284	20.060957562995	3
4	16292	20.061109562995	2
4	16389	20.061705624503	3
4	16405	20.061857624503	2
4	16491	20.062505438184	3
4	16499	20.062657438184	2
4	16663	20.063634639087	3
4	16679	20.063786639087	2
4	16695	20.063857758925	3
4	16703	20.064009758925	2
4	16867	20.065013182182	3
4	16876	20.065165182182	2
4	16973	20.06570924369	3
4	16980	20.06586124369	2
4	17323	20.067993342457	3
4	17331	20.068145342457	2
4	17669	20.070277790183	3
4	17678	20.070429790183	2
4	17981	20.072390356438	3
4	17989	20.072542356438	2
4	18159	20.073584675074	3
4	18166	20.073736675074	2
4	18403	20.075342523079	3
4	18411	20.075494523079	2
4	18473	20.075789260965	3
4	18489	20.075941260965	2
4	18645	20.076983461868	3
4	18653	20.077135461868	2
4	18750	20.077679704709	3
4	18758	20.077831704709	2
4	18786	20.077915704709	3
4	18793	20.078067704709	2
4	18820	20.078125704709	3
4	18828	20.078277704709	2
4	18998	20.079333231318	3
4	19005	20.079485231318	2
4	19033	20.079543231318	3
4	19040	20.079695231318	2
4	19208	20.080673018745	3
4	19216	20.080825018745	2
4	19487	20.082589771967	3
4	19494	20.082741771967	2
4	19896	20.085622514965	3
4	19904	20.085774514965	2
4	20142	20.087250525597	3
4	20158	20.087402525597	2
4	20385	20.088877914916	3
4	20409	20.089029914916	2
4	20430	20.089179502291	3
4	20438	20.089331502291	2
4	20703	20.091203177347	3
4	20719	20.091355177347	2
4	20735	20.091569682302	3
4	20743	20.091721682302	2
4	20945	20.092961201709	3
4	20954	20.093113201709	2
4	21016	20.093420718631	3
4	21024	20.093572718631	2
4	21226	20.094799501082	3
4	21242	20.094951501082	2
4	21330	20.095612743923	3
4	21337	20.095764743923	2
4	21435	20.096334986764	3
4	21443	20.096486986764	2
4	21470	20.096570986764	3
4	21478	20.096722986764	2
4	21646	20.097791955524	3
4	21654	20.097943955524	2
4	21751	20.098487472446	3
4	21759	20.098639472446	2
4	21893	20.099471715287	3
4	21902	20.099623715287	2
4	21964	20.099931453173	3
4	21973	20.100083453173	2
4	22000	20.100154453173	3
4	22007	20.100306453173	2
4	22102	20.101032727897	3
4	22110	20.101184727897	2
4	22139	20.101411727897	3
4	22146	20.101563727897	2
4	22174	20.101738727897	3
4	22181	20.101890727897	2
4	22209	20.102026727897	3
4	22216	20.102178727897	2
5	25	2.1	3
6	25	2.1	1
6	2626	20.000000258461	3
6	2632	20.000152258461	1
6	7469	20.000223803047	3
6	7480	20.000375803047	1
6	7504	20.000499019035	3
6	7520	20.000651019035	1
6	7537	20.000735079613	3
6	7556	20.000887079613	2
6	7563	20.00088752399	1
6	7571	20.000958558645	3
6	7577	20.001110558645	1
6	7605	20.001194766618	3
6	7611	20.001346766618	1
6	7637	20.001430766618	0
6	7652	20.001582766618	2
6	7664	20.001583353993	1
6	7672	20.001745504504	3
6	7688	20.001897504504	1
6	7704	20.001969009459	3
6	7710	20.002121009459	1
6	7738	20.002231009459	3
6	7744	20.002383009459	1
6	7770	20.002441009459	0
[...]
202	18646	20.076983461868	2
202	18652	20.077135461868	1
202	18653	20.077135461868	0
202	18750	20.077679704709	1
202	18751	20.077679704709	2
202	18757	20.077831704709	1
202	18758	20.077831704709	0
202	18786	20.077915704709	1
202	18787	20.077915704709	2
202	18792	20.078067704709	1
202	18793	20.078067704709	0
202	18820	20.078125704709	1
202	18821	20.078125704709	2
202	18827	20.078277704709	1
202	18828	20.078277704709	0
202	18998	20.079333231318	1
202	18999	20.079333231318	2
202	19004	20.079485231318	1
202	19005	20.079485231318	0
202	19033	20.079543231318	1
202	19034	20.079543231318	2
202	19039	20.079695231318	1
202	19040	20.079695231318	0
202	19208	20.080673018745	1
202	19209	20.080673018745	2
202	19215	20.080825018745	1
202	19216	20.080825018745	0
202	19487	20.082589771967	1
202	19488	20.082589771967	2
202	19493	20.082741771967	1
202	19494	20.082741771967	0
202	19896	20.085622514965	1
202	19897	20.085622514965	2
202	19903	20.085774514965	1
202	19904	20.085774514965	0
202	20142	20.087250525597	1
202	20143	20.087250525597	2
202	20157	20.087402525597	1
202	20158	20.087402525597	0
202	20385	20.088877914916	1
202	20386	20.088877914916	2
202	20408	20.089029914916	1
202	20409	20.089029914916	0
202	20430	20.089179502291	1
202	20431	20.089179502291	2
202	20437	20.089331502291	1
202	20438	20.089331502291	0
202	20703	20.091203177347	1
202	20704	20.091203177347	2
202	20718	20.091355177347	1
202	20719	20.091355177347	0
202	20735	20.091569682302	1
202	20736	20.091569682302	2
202	20742	20.091721682302	1
202	20743	20.091721682302	0
202	20945	20.092961201709	1
202	20946	20.092961201709	2
202	20953	20.093113201709	1
202	20954	20.093113201709	0
202	21016	20.093420718631	1
202	21017	20.093420718631	2
202	21023	20.093572718631	1
202	21024	20.093572718631	0
202	21226	20.094799501082	1
202	21227	20.094799501082	2
202	21241	20.094951501082	1
202	21242	20.094951501082	0
202	21330	20.095612743923	1
202	21331	20.095612743923	2
202	21336	20.095764743923	1
202	21337	20.095764743923	0
202	21435	20.096334986764	1
202	21436	20.096334986764	2
202	21442	20.096486986764	1
202	21443	20.096486986764	0
202	21470	20.096570986764	1
202	21471	20.096570986764	2
202	21477	20.096722986764	1
202	21478	20.096722986764	0
202	21646	20.097791955524	1
202	21647	20.097791955524	2
202	21653	20.097943955524	1
202	21654	20.097943955524	0
202	21751	20.098487472446	1
202	21752	20.098487472446	2
202	21758	20.098639472446	1
202	21759	20.098639472446	0
202	21893	20.099471715287	1
202	21894	20.099471715287	2
202	21901	20.099623715287	1
202	21902	20.099623715287	0
202	21964	20.099931453173	1
202	21965	20.099931453173	2
202	21972	20.100083453173	1
202	21973	20.100083453173	0
202	22000	20.100154453173	1
202	22001	20.100154453173	2
202	22006	20.100306453173	1
202	22007	20.100306453173	0
202	22102	20.101032727897	1
202	22103	20.101032727897	2
202	22109	20.101184727897	1
202	22110	20.101184727897	0
202	22139	20.101411727897	1
202	22140	20.101411727897	2
202	22145	20.101563727897	1
202	22146	20.101563727897	0
202	22174	20.101738727897	1
202	22175	20.101738727897	2
202	22180	20.101890727897	1
202	22181	20.101890727897	0
202	22209	20.102026727897	1
202	22210	20.102026727897	2
202	22215	20.102178727897	1
202	22216	20.102178727897	0
203	7651	20.001582766618	158
203	7776	20.002593009459	158
203	7810	20.002803009459	158
203	7886	20.003262235765	158
203	8042	20.004498570723	158
203	8076	20.004721570723	158
203	8175	20.005430813564	158
203	8327	20.00636203987	158
203	8457	20.007320796624	158
203	8662	20.008699659846	158
203	8696	20.008909659846	158
203	8730	20.009119659846	158
203	8798	20.009592242322	158
203	8909	20.010288040786	158
203	9012	20.010970765681	158
203	9036	20.011298241689	158
203	9217	20.012492115948	158
203	9254	20.012819703323	158
203	9380	20.013739015593	158
203	9415	20.013975015593	158
203	9669	20.015589477227	158
203	9763	20.016350538735	158
203	9924	20.017321851005	158
203	10121	20.018791475869	158
203	10283	20.01985371871	158
203	10317	20.020064444629	158
203	10457	20.020944169524	158
203	10948	20.02406919564	158
203	10983	20.02434419564	158
203	11191	20.025723122462	158
203	11538	20.028085728289	158
203	11887	20.030500241569	158
203	12059	20.031733560205	158
203	12094	20.031943560205	158
203	12129	20.032153560205	158
203	12301	20.033321849894	158
203	12404	20.034096092735	158
203	12719	20.036170829286	158
203	12755	20.036380829286	158
203	12834	20.036905411762	158
203	12858	20.037154890794	158
203	13031	20.038335765053	158
203	13273	20.039963749111	158
203	13551	20.04193189775	158
203	13831	20.043900294216	158
203	14217	20.046671528439	158
203	14348	20.047707751923	158
203	14634	20.049662859161	158
203	14763	20.050660177797	158
203	14798	20.050896177797	158
203	15147	20.053271576818	158
203	15392	20.054887008595	158
203	15635	20.056566995995	158
203	15714	20.057026222301	158
203	15773	20.057537960187	158
203	16084	20.059743555628	158
203	16196	20.060413280523	158
203	16220	20.060649825109	158
203	16291	20.061109562995	158
203	16404	20.061857624503	158
203	16498	20.062657438184	158
203	16678	20.063786639087	158
203	16702	20.064009758925	158
203	16875	20.065165182182	158
203	16979	20.06586124369	158
203	17330	20.068145342457	158
203	17677	20.070429790183	158
203	17988	20.072542356438	158
203	18165	20.073736675074	158
203	18410	20.075494523079	158
203	18488	20.075941260965	158
203	18652	20.077135461868	158
203	18757	20.077831704709	158
203	18792	20.078067704709	158
203	18827	20.078277704709	158
203	19004	20.079485231318	158
203	19039	20.079695231318	158
203	19215	20.080825018745	158
203	19493	20.082741771967	158
203	19903	20.085774514965	158
203	20157	20.087402525597	158
203	20408	20.089029914916	158
203	20437	20.089331502291	158
203	20718	20.091355177347	158
203	20742	20.091721682302	158
203	20953	20.093113201709	158
203	21023	20.093572718631	158
203	21241	20.094951501082	158
203	21336	20.095764743923	158
203	21442	20.096486986764	158
203	21477	20.096722986764	158
203	21653	20.097943955524	158
203	21758	20.098639472446	158
203	21901	20.099623715287	158
203	21972	20.100083453173	158
203	22006	20.100306453173	158
203	22109	20.101184727897	158
203	22145	20.101563727897	158
203	22180	20.101890727897	158
203	22215	20.102178727897	158
204	7651	20.001582766618	158
204	7776	20.002593009459	158
204	7810	20.002803009459	158
204	7886	20.003262235765	158
204	8042	20.004498570723	158
204	8076	20.004721570723	158
204	8175	20.005430813564	158
204	8327	20.00636203987	158
204	8457	20.007320796624	158
204	8662	20.008699659846	158
204	8696	20.008909659846	158
204	8730	20.009119659846	158
204	8798	20.009592242322	158
204	8909	20.010288040786	158
204	9012	20.010970765681	158
204	9036	20.011298241689	158
204	9217	20.012492115948	158
204	9254	20.012819703323	158
204	9380	20.013739015593	158
204	9415	20.013975015593	158
204	9669	20.015589477227	158
204	9763	20.016350538735	158
204	9924	20.017321851005	158
204	10121	20.018791475869	158
204	10283	20.01985371871	158
204	10317	20.020064444629	158
204	10457	20.020944169524	158
204	10948	20.02406919564	158
204	10983	20.02434419564	158
204	11191	20.025723122462	158
204	11538	20.028085728289	158
204	11887	20.030500241569	158
204	12059	20.031733560205	158
204	12094	20.031943560205	158
204	12129	20.032153560205	158
204	12301	20.033321849894	158
204	12404	20.034096092735	158
204	12719	20.036170829286	158
204	12755	20.036380829286	158
204	12834	20.036905411762	158
204	12858	20.037154890794	158
204	13031	20.038335765053	158
204	13273	20.039963749111	158
204	13551	20.04193189775	158
204	13831	20.043900294216	158
204	14217	20.046671528439	158
204	14348	20.047707751923	158
204	14634	20.049662859161	158
204	14763	20.050660177797	158
204	14798	20.050896177797	158
204	15147	20.053271576818	158
204	15392	20.054887008595	158
204	15635	20.056566995995	158
204	15714	20.057026222301	158
204	15773	20.057537960187	158
204	16084	20.059743555628	158
204	16196	20.060413280523	158
204	16220	20.060649825109	158
204	16291	20.061109562995	158
204	16404	20.061857624503	158
204	16498	20.062657438184	158
204	16678	20.063786639087	158
204	16702	20.064009758925	158
204	16875	20.065165182182	158
204	16979	20.06586124369	158
204	17330	20.068145342457	158
204	17677	20.070429790183	158
204	17988	20.072542356438	158
204	18165	20.073736675074	158
204	18410	20.075494523079	158
204	18488	20.075941260965	158
204	18652	20.077135461868	158
204	18757	20.077831704709	158
204	18792	20.078067704709	158
204	18827	20.078277704709	158
204	19004	20.079485231318	158
204	19039	20.079695231318	158
204	19215	20.080825018745	158
204	19493	20.082741771967	158
204	19903	20.085774514965	158
204	20157	20.087402525597	158
204	20408	20.089029914916	158
204	20437	20.089331502291	158
204	20718	20.091355177347	158
204	20742	20.091721682302	158
204	20953	20.093113201709	158
204	21023	20.093572718631	158
204	21241	20.094951501082	158
204	21336	20.095764743923	158
204	21442	20.096486986764	158
204	21477	20.096722986764	158
204	21653	20.097943955524	158
204	21758	20.098639472446	158
204	21901	20.099623715287	158
204	21972	20.100083453173	158
204	22006	20.100306453173	158
204	22109	20.101184727897	158
204	22145	20.101563727897	158
204	22180	20.101890727897	158
204	22215	20.102178727897	158
205	7651	20.001582766618	158
205	7776	20.002593009459	158
205	7810	20.002803009459	158
205	7886	20.003262235765	158
205	8042	20.004498570723	158
205	8076	20.004721570723	158
205	8175	20.005430813564	158
205	8327	20.00636203987	158
205	8457	20.007320796624	158
205	8662	20.008699659846	158
205	8696	20.008909659846	158
205	8730	20.009119659846	158
205	8798	20.009592242322	158
205	8909	20.010288040786	158
205	9012	20.010970765681	158
205	9036	20.011298241689	158
205	9217	20.012492115948	158
205	9254	20.012819703323	158
205	9380	20.013739015593	158
205	9415	20.013975015593	158
205	9669	20.015589477227	158
205	9763	20.016350538735	158
205	9924	20.017321851005	158
205	10121	20.018791475869	158
205	10283	20.01985371871	158
205	10317	20.020064444629	158
205	10457	20.020944169524	158
205	10948	20.02406919564	158
205	10983	20.02434419564	158
205	11191	20.025723122462	158
205	11538	20.028085728289	158
205	11887	20.030500241569	158
205	12059	20.031733560205	158
205	12094	20.031943560205	158
205	12129	20.032153560205	158
205	12301	20.033321849894	158
205	12404	20.034096092735	158
205	12719	20.036170829286	158
205	12755	20.036380829286	158
205	12834	20.036905411762	158
205	12858	20.037154890794	158
205	13031	20.038335765053	158
205	13273	20.039963749111	158
205	13551	20.04193189775	158
205	13831	20.043900294216	158
205	14217	20.046671528439	158
205	14348	20.047707751923	158
205	14634	20.049662859161	158
205	14763	20.050660177797	158
205	14798	20.050896177797	158
205	15147	20.053271576818	158
205	15392	20.054887008595	158
205	15635	20.056566995995	158
205	15714	20.057026222301	158
205	15773	20.057537960187	158
205	16084	20.059743555628	158
205	16196	20.060413280523	158
205	16220	20.060649825109	158
205	16291	20.061109562995	158
205	16404	20.061857624503	158
205	16498	20.062657438184	158
205	16678	20.063786639087	158
205	16702	20.064009758925	158
205	16875	20.065165182182	158
205	16979	20.06586124369	158
205	17330	20.068145342457	158
205	17677	20.070429790183	158
205	17988	20.072542356438	158
205	18165	20.073736675074	158
205	18410	20.075494523079	158
205	18488	20.075941260965	158
205	18652	20.077135461868	158
205	18757	20.077831704709	158
205	18792	20.078067704709	158
205	18827	20.078277704709	158
205	19004	20.079485231318	158
205	19039	20.079695231318	158
205	19215	20.080825018745	158
205	19493	20.082741771967	158
205	19903	20.085774514965	158
205	20157	20.087402525597	158
205	20408	20.089029914916	158
205	20437	20.089331502291	158
205	20718	20.091355177347	158
205	20742	20.091721682302	158
205	20953	20.093113201709	158
205	21023	20.093572718631	158
205	21241	20.094951501082	158
205	21336	20.095764743923	158
205	21442	20.096486986764	158
205	21477	20.096722986764	158
205	21653	20.097943955524	158
205	21758	20.098639472446	158
205	21901	20.099623715287	158
205	21972	20.100083453173	158
205	22006	20.100306453173	158
205	22109	20.101184727897	158
205	22145	20.101563727897	158
205	22180	20.101890727897	158
205	22215	20.102178727897	158
206	7651	20.001582766618	0.000152
206	7776	20.002593009459	0.001162242841
206	7810	20.002803009459	0.000362
206	7886	20.003262235765	0.000611226306
206	8042	20.004498570723	0.001388334958
206	8076	20.004721570723	0.000375
206	8175	20.005430813564	0.000861242841
206	8327	20.00636203987	0.001083226306
206	8457	20.007320796624	0.001110756754
206	8662	20.008699659846	0.001530863222
206	8696	20.008909659846	0.000362
206	8730	20.009119659846	0.000362
206	8798	20.009592242322	0.000624582476
206	8909	20.010288040786	0.000847798464
206	9012	20.010970765681	0.000834724895
206	9036	20.011298241689	0.000479476008
206	9217	20.012492115948	0.001345874259
206	9254	20.012819703323	0.000479587375
206	9380	20.013739015593	0.00107131227
206	9415	20.013975015593	0.000388
206	9669	20.015589477227	0.001766461634
206	9763	20.016350538735	0.000913061508
206	9924	20.017321851005	0.00112331227
206	10121	20.018791475869	0.001621624864
206	10283	20.01985371871	0.001214242841
206	10317	20.020064444629	0.000362725919
206	10457	20.020944169524	0.001031724895
206	10948	20.02406919564	0.003277026116
206	10983	20.02434419564	0.000427
206	11191	20.025723122462	0.001530926822
206	11538	20.028085728289	0.002514605827
206	11887	20.030500241569	0.00256651328
206	12059	20.031733560205	0.001385318636
206	12094	20.031943560205	0.000362
206	12129	20.032153560205	0.000362
206	12301	20.033321849894	0.001320289689
206	12404	20.034096092735	0.000926242841
206	12719	20.036170829286	0.002226736551
206	12755	20.036380829286	0.000362
206	12834	20.036905411762	0.000676582476
206	12858	20.037154890794	0.000401479032
206	13031	20.038335765053	0.001332874259
206	13273	20.039963749111	0.001779984058
206	13551	20.04193189775	0.002120148639
206	13831	20.043900294216	0.002120396466
206	14217	20.046671528439	0.002923234223
206	14348	20.047707751923	0.001188223484
206	14634	20.049662859161	0.002107107238
206	14763	20.050660177797	0.001149318636
206	14798	20.050896177797	0.000388
206	15147	20.053271576818	0.002527399021
206	15392	20.054887008595	0.001767431777
206	15635	20.056566995995	0.0018319874
206	15714	20.057026222301	0.000611226306
206	15773	20.057537960187	0.000663737886
206	16084	20.059743555628	0.002357595441
206	16196	20.060413280523	0.000821724895
206	16220	20.060649825109	0.000388544586
206	16291	20.061109562995	0.000611737886
206	16404	20.061857624503	0.000900061508
206	16498	20.062657438184	0.000951813681
206	16678	20.063786639087	0.001281200903
206	16702	20.064009758925	0.000375119838
206	16875	20.065165182182	0.001307423257
206	16979	20.06586124369	0.000848061508
206	17330	20.068145342457	0.002436098767
206	17677	20.070429790183	0.002436447726
206	17988	20.072542356438	0.002264566255
206	18165	20.073736675074	0.001346318636
206	18410	20.075494523079	0.001909848005
206	18488	20.075941260965	0.000598737886
206	18652	20.077135461868	0.001346200903
206	18757	20.077831704709	0.000848242841
206	18792	20.078067704709	0.000388
206	18827	20.078277704709	0.000362
206	19004	20.079485231318	0.001359526609
206	19039	20.079695231318	0.000362
206	19215	20.080825018745	0.001281787427
206	19493	20.082741771967	0.002068753222
206	19903	20.085774514965	0.003184742998
206	20157	20.087402525597	0.001780010632
206	20408	20.089029914916	0.001779389319
206	20437	20.089331502291	0.000453587375
206	20718	20.091355177347	0.002175675056
206	20742	20.091721682302	0.000518504955
206	20953	20.093113201709	0.001543519407
206	21023	20.093572718631	0.000611516922
206	21241	20.094951501082	0.001530782451
206	21336	20.095764743923	0.000965242841
206	21442	20.096486986764	0.000874242841
206	21477	20.096722986764	0.000388
206	21653	20.097943955524	0.00137296876
206	21758	20.098639472446	0.000847516922
206	21901	20.099623715287	0.001136242841
206	21972	20.100083453173	0.000611737886
206	22006	20.100306453173	0.000375
206	22109	20.101184727897	0.001030274724
206	22145	20.101563727897	0.000531
206	22180	20.101890727897	0.000479
206	22215	20.102178727897	0.00044
207	7658	20.001583025079	158
207	7930	20.003606499511	158
207	9019	20.010971024142	158
207	9128	20.011758184131	158
207	9224	20.012492374409	158
207	9261	20.012819961784	158
207	9829	20.016587005169	158
207	9931	20.017322109466	158
207	10075	20.018306480452	158
207	10292	20.019853977171	158
207	11280	20.026209087485	158
207	11490	20.027613492409	158
207	11665	20.028807670731	158
207	11731	20.029254299127	158
207	11975	20.030973206592	158
207	12254	20.03282357924	158
207	12950	20.037614813679	158
207	13431	20.040909474708	158
207	13643	20.042418179829	158
207	13993	20.04479371569	158
207	14057	20.045360524768	158
207	14126	20.045859153164	158
207	14404	20.04793155497	158
207	14925	20.051566240077	158
207	15445	20.055110475029	158
207	15721	20.057026480762	158
207	15934	20.058458210096	158
207	15965	20.058707349491	158
207	16203	20.060413538984	158
207	16411	20.061857882964	158
207	16685	20.063786897548	158
207	16793	20.06450868181	158
207	17493	20.069065220382	158
207	17906	20.071782085784	158
207	18292	20.074485501739	158
207	19269	20.081061485179	158
207	19547	20.082991238401	158
207	19721	20.084227738027	158
207	19755	20.084528909972	158
207	20164	20.087402784058	158
207	20417	20.089030173377	158
207	20491	20.089554968725	158
207	20560	20.090040564571	158
207	20663	20.0908698301	158
207	21246	20.094951759543	158
208	7660	20.001583057856	158
208	7894	20.003262527003	158
208	8123	20.004932077949	158
208	8917	20.010288332024	158
208	9118	20.011757809493	158
208	9226	20.012492407186	158
208	9253	20.012819623174	158
208	9677	20.015589768465	158
208	9933	20.017322142243	158
208	10169	20.019027983095	158
208	11068	20.024778194091	158
208	11655	20.028807296093	158
208	11972	20.030973151234	158
208	12349	20.03354535712	158
208	12842	20.036905703	158
208	13150	20.039018868125	158
208	13428	20.04090941935	158
208	13983	20.044793341052	158
208	14054	20.04536046941	158
208	14225	20.046671819677	158
208	14642	20.049663150399	158
208	14915	20.051565865439	158
208	15723	20.057026513539	158
208	16413	20.061857915741	158
208	16548	20.06288084926	158
208	16687	20.063786930325	158
208	17588	20.069734476364	158
208	18496	20.075941552203	158
208	19847	20.08532777935	158
208	20166	20.087402816835	158
208	20550	20.090040189933	158
208	20653	20.090869455462	158
208	20726	20.091355468585	158
208	21248	20.09495179232	158
208	22057	20.100620988187	158
209	7896	20.003262604708	158
209	8338	20.006362362923	158
209	8919	20.010288409729	158
209	9022	20.010971088734	158
209	9679	20.01558984617	158
209	9935	20.017322219948	158
209	11070	20.024778227753	158
209	11276	20.026209031015	158
209	11486	20.027613435939	158
209	11722	20.029253925601	158
209	12245	20.032823205714	158
209	12844	20.036905780705	158
209	13152	20.039018901787	158
209	14117	20.045858779638	158
209	14227	20.046671897382	158
209	14644	20.049663228104	158
209	15442	20.055110438116	158
209	15925	20.05845783657	158
209	15963	20.058707327795	158
209	16206	20.060413649466	158
209	16416	20.061857962773	158
209	16550	20.062880882922	158
209	16690	20.063786977357	158
209	17590	20.069734510026	158
209	17897	20.071781712258	158
209	18498	20.075941629908	158
209	19266	20.081061448266	158
209	19544	20.082991201488	158
209	20168	20.08740289454	158
209	20488	20.089554931812	158
209	20728	20.09135554629	158

