version 2
run DelayAttack-0-20240429-21:48:41-21464
attr configname DelayAttack
attr datetime 20240429-21:48:41
attr experiment DelayAttack
attr inifile omnetpp.ini
attr iterationvars ""
attr iterationvarsf ""
attr measurement ""
attr network Scenario
attr processid 21464
attr repetition 0
attr replication #0
attr resultdir results
attr runnumber 0
attr seedset 0
param *.node[*].**.attacking true
param *.node[*].**.attackString "\"delay\""
param *.node[*].**.delayTime 5
param *.node[0].**.impersonating true
param *.node[0].**.impersonatingIPFragOne 10
param *.node[0].**.impersonatingIPFragTwo 0
param *.node[0].**.impersonatingIPFragThree 0
param *.node[0].**.impersonatingIPFragFour 222
param *.node[*].numApps 1
param *.node[*].app[0].typename "\"vanetattackpackage.veins_inet.AttackTestApp\""
param *.node[*].app[0].interface "\"wlan0\""
param *.node[*].wlan[0].opMode "\"p\""
param *.node[*].wlan[0].radio.typename "\"Ieee80211DimensionalRadio\""
param *.node[*].wlan[0].radio.bandName "\"5.9 GHz\""
param *.node[*].wlan[0].radio.channelNumber 3
param *.node[*].wlan[0].radio.transmitter.power 20mW
param *.node[*].wlan[0].radio.bandwidth "10 MHz"
param *.node[*].wlan[*].radio.antenna.mobility.typename "\"AttachedMobility\""
param *.node[*].wlan[*].radio.antenna.mobility.mobilityModule "\"^.^.^.^.mobility\""
param *.node[*].wlan[*].radio.antenna.mobility.offsetX -2.5m
param *.node[*].wlan[*].radio.antenna.mobility.offsetZ 1.5m
param *.node[*].wlan[*].radio.antenna.mobility.constraintAreaMinX 0m
param *.node[*].wlan[*].radio.antenna.mobility.constraintAreaMaxX 0m
param *.node[*].wlan[*].radio.antenna.mobility.constraintAreaMinY 0m
param *.node[*].wlan[*].radio.antenna.mobility.constraintAreaMaxY 0m
param *.node[*].wlan[*].radio.antenna.mobility.constraintAreaMinZ 0m
param *.node[*].wlan[*].radio.antenna.mobility.constraintAreaMaxZ 0m
param *.node[*].ipv4.configurator.typename "\"HostAutoConfigurator\""
param *.node[*].ipv4.configurator.interfaces "\"wlan0\""
param *.node[*].ipv4.configurator.mcastGroups "\"224.0.0.1\""
param *.node[*].mobility.typename "\"VeinsInetMobility\""
param *.manager.updateInterval 0.1s
param *.manager.host "\"localhost\""
param *.manager.port 9999
param *.manager.autoShutdown true
param *.manager.launchConfig "xmldoc(\"motorway.launchd.xml\")"
param *.manager.moduleType "\"vanetattackpackage.veins_inet.VeinsInetAttackingCar\""

vector 0 Scenario.node[0].wlan[0].radio radioMode:vector ETV
attr interpolationmode sample-hold
attr source radioModeChanged
attr title "Radio mode, vector"
vector 1 Scenario.node[0].wlan[0].radio radioChannel:vector ETV
attr interpolationmode sample-hold
attr source radioChannelChanged
attr title "Radio channel, vector"
vector 2 Scenario.node[0].wlan[0].radio receptionState:vector ETV
attr interpolationmode sample-hold
attr source receptionStateChanged
attr title "Radio reception state, vector"
vector 3 Scenario.node[0].wlan[0].mac.dcf.recoveryProcedure contentionWindowChanged:vector ETV
attr interpolationmode sample-hold
attr title "contention window, vector"
vector 4 Scenario.node[1].wlan[0].radio radioMode:vector ETV
attr interpolationmode sample-hold
attr source radioModeChanged
attr title "Radio mode, vector"
vector 5 Scenario.node[1].wlan[0].radio radioChannel:vector ETV
attr interpolationmode sample-hold
attr source radioChannelChanged
attr title "Radio channel, vector"
vector 6 Scenario.node[1].wlan[0].radio receptionState:vector ETV
attr interpolationmode sample-hold
attr source receptionStateChanged
attr title "Radio reception state, vector"
vector 7 Scenario.node[1].wlan[0].mac.dcf.recoveryProcedure contentionWindowChanged:vector ETV
attr interpolationmode sample-hold
attr title "contention window, vector"
vector 8 Scenario.node[2].wlan[0].radio radioMode:vector ETV
attr interpolationmode sample-hold
attr source radioModeChanged
attr title "Radio mode, vector"
vector 9 Scenario.node[2].wlan[0].radio radioChannel:vector ETV
attr interpolationmode sample-hold
attr source radioChannelChanged
attr title "Radio channel, vector"
vector 10 Scenario.node[2].wlan[0].radio receptionState:vector ETV
attr interpolationmode sample-hold
attr source receptionStateChanged
attr title "Radio reception state, vector"
vector 11 Scenario.node[2].wlan[0].mac.dcf.recoveryProcedure contentionWindowChanged:vector ETV
attr interpolationmode sample-hold
attr title "contention window, vector"
vector 12 Scenario.node[3].wlan[0].radio radioMode:vector ETV
attr interpolationmode sample-hold
attr source radioModeChanged
attr title "Radio mode, vector"
vector 13 Scenario.node[3].wlan[0].radio radioChannel:vector ETV
attr interpolationmode sample-hold
attr source radioChannelChanged
attr title "Radio channel, vector"
vector 14 Scenario.node[3].wlan[0].radio receptionState:vector ETV
attr interpolationmode sample-hold
attr source receptionStateChanged
attr title "Radio reception state, vector"
vector 15 Scenario.node[3].wlan[0].mac.dcf.recoveryProcedure contentionWindowChanged:vector ETV
attr interpolationmode sample-hold
attr title "contention window, vector"
vector 16 Scenario.node[4].wlan[0].radio radioMode:vector ETV
attr interpolationmode sample-hold
attr source radioModeChanged
attr title "Radio mode, vector"
vector 17 Scenario.node[4].wlan[0].radio radioChannel:vector ETV
attr interpolationmode sample-hold
attr source radioChannelChanged
attr title "Radio channel, vector"
vector 18 Scenario.node[4].wlan[0].radio receptionState:vector ETV
attr interpolationmode sample-hold
attr source receptionStateChanged
attr title "Radio reception state, vector"
vector 19 Scenario.node[4].wlan[0].mac.dcf.recoveryProcedure contentionWindowChanged:vector ETV
attr interpolationmode sample-hold
attr title "contention window, vector"
vector 20 Scenario.node[0].app[0] packetSent:vector(packetBytes) ETV
attr interpolationmode none
attr source packetSent
attr title "packets sent, vector(packetBytes)"
vector 21 Scenario.node[0].udp packetSent:vector(packetBytes) ETV
attr interpolationmode none
attr source packetSent
attr title "packets sent, vector(packetBytes)"
vector 22 Scenario.node[0].lo[0].lo rcvdPkFromHl:vector(packetBytes) ETV
attr interpolationmode none
attr source packetReceivedFromUpper
attr title "packets received from higher layer, vector(packetBytes)"
vector 23 Scenario.node[0].lo[0].lo passedUpPk:vector(packetBytes) ETV
attr interpolationmode none
attr source packetSentToUpper
attr title "packets passed to higher layer, vector(packetBytes)"
vector 24 Scenario.node[0].ipv4.ip totalPacketsReceieved:vector(packetBytes) ETV
attr interpolationmode none
attr source messageReceived
attr title "packets received from network, vector(packetBytes)"
vector 25 Scenario.node[0].wlan[0].mac packetReceivedFromUpper:vector(packetBytes) ETV
attr interpolationmode none
attr title "packets received from upper layer, vector(packetBytes)"
vector 26 Scenario.node[0].wlan[0].mac.dcf.channelAccess.pendingQueue packetPushed:vector(packetBytes) ETV
attr interpolationmode none
attr title "packet pushed, vector(packetBytes)"
vector 27 Scenario.node[0].wlan[0].mac.dcf.channelAccess.pendingQueue queueLength:vector ETV
attr interpolationmode sample-hold
attr source "count(packetPushed) - count(packetPopped) - count(packetRemoved) - count(packetDropped)"
attr title "queue length, vector"
vector 28 Scenario.node[0].wlan[0].mac.dcf.channelAccess.contention backoffPeriodGenerated:vector ETV
attr interpolationmode none
attr title "backoff periods, vector"
vector 29 Scenario.node[0].wlan[0].mac.dcf.channelAccess.contention backoffActive:vector ETV
attr interpolationmode sample-hold
attr source count(backoffStarted)-count(backoffStopped)
attr title "backoff active, vector"
vector 30 Scenario.node[0].udp packetReceived:vector(packetBytes) ETV
attr interpolationmode none
attr source packetReceived
attr title "packets received, vector(packetBytes)"
vector 31 Scenario.node[0].udp passedUpPk:vector(count) ETV
attr interpolationmode none
attr source packetSentToUpper
attr title "packets passed up, vector(count)"
vector 32 Scenario.node[0].app[0] packetReceived:vector(packetBytes) ETV
attr interpolationmode none
attr source packetReceived
attr title "packets received, vector(packetBytes)"
vector 33 Scenario.node[0].app[0] throughput:vector ETV
attr source throughput(packetReceived)
attr title "throughput, vector"
attr unit bps
vector 34 Scenario.node[0].app[0] rcvdPkLifetime:vector ETV
attr interpolationmode none
attr source dataAge(packetReceived)
attr title "received packet lifetime, vector"
attr unit s
vector 35 Scenario.node[0].wlan[0].mac.dcf.channelAccess.pendingQueue packetPopped:vector(packetBytes) ETV
attr interpolationmode none
attr title "packet popped, vector(packetBytes)"
vector 36 Scenario.node[0].wlan[0].mac.dcf.channelAccess.pendingQueue queueingTime:vector ETV
attr interpolationmode none
attr source queueingTime(packetPopped)
attr title "queueing times, vector"
attr unit s
vector 37 Scenario.node[0].wlan[0].mac.dcf.channelAccess.inProgressFrames queueLength:vector ETV
attr interpolationmode sample-hold
attr source "count(packetEnqueued) - count(packetDequeued)"
attr title "queue length, vector"
vector 38 Scenario.node[0].wlan[0].mac.dcf datarateSelected:vector ETV
attr interpolationmode none
attr title "datarates selected, vector"
vector 39 Scenario.node[0].wlan[0].mac packetSentToLower:vector(packetBytes) ETV
attr interpolationmode none
attr title "packets sent to lower layer, vector(packetBytes)"
vector 40 Scenario.node[0].wlan[0].mac.dcf frameSequenceActive:vector ETV
attr interpolationmode sample-hold
attr source count(frameSequenceStarted)-count(frameSequenceFinished)
attr title "frame sequence active, vector"
vector 41 Scenario.node[0].wlan[0].radio transmissionState:vector ETV
attr interpolationmode sample-hold
attr source transmissionStateChanged
attr title "Radio transmission state, vector"
vector 42 Scenario.node[0].wlan[0].mac.dcf packetSentToPeer:vector(packetBytes) ETV
attr interpolationmode none
attr title "packets sent, vector(packetBytes)"
vector 43 Scenario.node[0].wlan[0].mac.dcf packetSentToPeerMulticast:vector(packetBytes) ETV
attr interpolationmode none
attr source ieee80211Multicast(packetSentToPeer)
attr title "packets sent: multicast, vector(packetBytes)"
vector 44 Scenario.node[0].wlan[0].mac.dcf packetSentToPeerWithoutRetry:vector(packetBytes) ETV
attr interpolationmode none
attr source ieee80211NotRetry(packetSentToPeer)
attr title "packets sent: without retry, vector(packetBytes)"
vector 45 Scenario.node[0].wlan[0].mac.dcf.channelAccess.inProgressFrames queueingTime:vector ETV
attr interpolationmode none
attr source queueingTime(packetDequeued)
attr title "queueing times, vector"
vector 46 Scenario.node[1].wlan[0].mac packetReceivedFromLower:vector(packetBytes) ETV
attr interpolationmode none
attr title "packets received from lower layer, vector(packetBytes)"
vector 47 Scenario.node[1].wlan[0].mac.dcf packetReceivedFromPeer:vector(packetBytes) ETV
attr interpolationmode none
attr title "packets received, vector(packetBytes)"
vector 48 Scenario.node[1].wlan[0].mac.dcf packetReceivedFromPeerMulticast:vector(packetBytes) ETV
attr interpolationmode none
attr source ieee80211Multicast(packetReceivedFromPeer)
attr title "packets received: multicast, vector(packetBytes)"
vector 49 Scenario.node[1].wlan[0].mac.dcf packetReceivedFromPeerWithoutRetry:vector(packetBytes) ETV
attr interpolationmode none
attr source ieee80211NotRetry(packetReceivedFromPeer)
attr title "packets received: without retry, vector(packetBytes)"
vector 50 Scenario.node[1].wlan[0].mac packetSentToUpper:vector(packetBytes) ETV
attr interpolationmode none
attr title "packets sent to upper layer, vector(packetBytes)"
vector 51 Scenario.node[1].ipv4.ip totalPacketsReceieved:vector(packetBytes) ETV
attr interpolationmode none
attr source messageReceived
attr title "packets received from network, vector(packetBytes)"
vector 52 Scenario.node[1].udp packetReceived:vector(packetBytes) ETV
attr interpolationmode none
attr source packetReceived
attr title "packets received, vector(packetBytes)"
vector 53 Scenario.node[1].udp passedUpPk:vector(count) ETV
attr interpolationmode none
attr source packetSentToUpper
attr title "packets passed up, vector(count)"
vector 54 Scenario.node[1].app[0] packetReceived:vector(packetBytes) ETV
attr interpolationmode none
attr source packetReceived
attr title "packets received, vector(packetBytes)"
vector 55 Scenario.node[1].app[0] throughput:vector ETV
attr source throughput(packetReceived)
attr title "throughput, vector"
attr unit bps
vector 56 Scenario.node[1].app[0] rcvdPkLifetime:vector ETV
attr interpolationmode none
attr source dataAge(packetReceived)
attr title "received packet lifetime, vector"
attr unit s
vector 57 Scenario.node[1].app[0] packetSent:vector(packetBytes) ETV
attr interpolationmode none
attr source packetSent
attr title "packets sent, vector(packetBytes)"
vector 58 Scenario.node[1].udp packetSent:vector(packetBytes) ETV
attr interpolationmode none
attr source packetSent
attr title "packets sent, vector(packetBytes)"
vector 59 Scenario.node[2].wlan[0].mac packetReceivedFromLower:vector(packetBytes) ETV
attr interpolationmode none
attr title "packets received from lower layer, vector(packetBytes)"
vector 60 Scenario.node[2].wlan[0].mac.dcf packetReceivedFromPeer:vector(packetBytes) ETV
attr interpolationmode none
attr title "packets received, vector(packetBytes)"
vector 61 Scenario.node[2].wlan[0].mac.dcf packetReceivedFromPeerMulticast:vector(packetBytes) ETV
attr interpolationmode none
attr source ieee80211Multicast(packetReceivedFromPeer)
attr title "packets received: multicast, vector(packetBytes)"
vector 62 Scenario.node[2].wlan[0].mac.dcf packetReceivedFromPeerWithoutRetry:vector(packetBytes) ETV
attr interpolationmode none
attr source ieee80211NotRetry(packetReceivedFromPeer)
attr title "packets received: without retry, vector(packetBytes)"
vector 63 Scenario.node[2].wlan[0].mac packetSentToUpper:vector(packetBytes) ETV
attr interpolationmode none
attr title "packets sent to upper layer, vector(packetBytes)"
vector 64 Scenario.node[2].ipv4.ip totalPacketsReceieved:vector(packetBytes) ETV
attr interpolationmode none
attr source messageReceived
attr title "packets received from network, vector(packetBytes)"
vector 65 Scenario.node[2].udp packetReceived:vector(packetBytes) ETV
attr interpolationmode none
attr source packetReceived
attr title "packets received, vector(packetBytes)"
vector 66 Scenario.node[2].udp passedUpPk:vector(count) ETV
attr interpolationmode none
attr source packetSentToUpper
attr title "packets passed up, vector(count)"
vector 67 Scenario.node[2].app[0] packetReceived:vector(packetBytes) ETV
attr interpolationmode none
attr source packetReceived
attr title "packets received, vector(packetBytes)"
vector 68 Scenario.node[2].app[0] throughput:vector ETV
attr source throughput(packetReceived)
attr title "throughput, vector"
attr unit bps
vector 69 Scenario.node[2].app[0] rcvdPkLifetime:vector ETV
attr interpolationmode none
attr source dataAge(packetReceived)
attr title "received packet lifetime, vector"
attr unit s
vector 70 Scenario.node[2].app[0] packetSent:vector(packetBytes) ETV
attr interpolationmode none
attr source packetSent
attr title "packets sent, vector(packetBytes)"
vector 71 Scenario.node[2].udp packetSent:vector(packetBytes) ETV
attr interpolationmode none
attr source packetSent
attr title "packets sent, vector(packetBytes)"
vector 72 Scenario.node[3].wlan[0].mac packetReceivedFromLower:vector(packetBytes) ETV
attr interpolationmode none
attr title "packets received from lower layer, vector(packetBytes)"
vector 73 Scenario.node[3].wlan[0].mac.dcf packetReceivedFromPeer:vector(packetBytes) ETV
attr interpolationmode none
attr title "packets received, vector(packetBytes)"
vector 74 Scenario.node[3].wlan[0].mac.dcf packetReceivedFromPeerMulticast:vector(packetBytes) ETV
attr interpolationmode none
attr source ieee80211Multicast(packetReceivedFromPeer)
attr title "packets received: multicast, vector(packetBytes)"
vector 75 Scenario.node[3].wlan[0].mac.dcf packetReceivedFromPeerWithoutRetry:vector(packetBytes) ETV
attr interpolationmode none
attr source ieee80211NotRetry(packetReceivedFromPeer)
attr title "packets received: without retry, vector(packetBytes)"
vector 76 Scenario.node[3].wlan[0].mac packetSentToUpper:vector(packetBytes) ETV
attr interpolationmode none
attr title "packets sent to upper layer, vector(packetBytes)"
vector 77 Scenario.node[3].ipv4.ip totalPacketsReceieved:vector(packetBytes) ETV
attr interpolationmode none
attr source messageReceived
attr title "packets received from network, vector(packetBytes)"
vector 78 Scenario.node[3].udp packetReceived:vector(packetBytes) ETV
attr interpolationmode none
attr source packetReceived
attr title "packets received, vector(packetBytes)"
vector 79 Scenario.node[3].udp passedUpPk:vector(count) ETV
attr interpolationmode none
attr source packetSentToUpper
attr title "packets passed up, vector(count)"
vector 80 Scenario.node[3].app[0] packetReceived:vector(packetBytes) ETV
attr interpolationmode none
attr source packetReceived
attr title "packets received, vector(packetBytes)"
vector 81 Scenario.node[3].app[0] throughput:vector ETV
attr source throughput(packetReceived)
attr title "throughput, vector"
attr unit bps
vector 82 Scenario.node[3].app[0] rcvdPkLifetime:vector ETV
attr interpolationmode none
attr source dataAge(packetReceived)
attr title "received packet lifetime, vector"
attr unit s
vector 83 Scenario.node[3].app[0] packetSent:vector(packetBytes) ETV
attr interpolationmode none
attr source packetSent
attr title "packets sent, vector(packetBytes)"
vector 84 Scenario.node[3].udp packetSent:vector(packetBytes) ETV
attr interpolationmode none
attr source packetSent
attr title "packets sent, vector(packetBytes)"
vector 85 Scenario.node[4].wlan[0].mac packetReceivedFromLower:vector(packetBytes) ETV
attr interpolationmode none
attr title "packets received from lower layer, vector(packetBytes)"
vector 86 Scenario.node[4].wlan[0].mac.dcf packetReceivedFromPeer:vector(packetBytes) ETV
attr interpolationmode none
attr title "packets received, vector(packetBytes)"
vector 87 Scenario.node[4].wlan[0].mac.dcf packetReceivedFromPeerMulticast:vector(packetBytes) ETV
attr interpolationmode none
attr source ieee80211Multicast(packetReceivedFromPeer)
attr title "packets received: multicast, vector(packetBytes)"
vector 88 Scenario.node[4].wlan[0].mac.dcf packetReceivedFromPeerWithoutRetry:vector(packetBytes) ETV
attr interpolationmode none
attr source ieee80211NotRetry(packetReceivedFromPeer)
attr title "packets received: without retry, vector(packetBytes)"
vector 89 Scenario.node[4].wlan[0].mac packetSentToUpper:vector(packetBytes) ETV
attr interpolationmode none
attr title "packets sent to upper layer, vector(packetBytes)"
vector 90 Scenario.node[4].ipv4.ip totalPacketsReceieved:vector(packetBytes) ETV
attr interpolationmode none
attr source messageReceived
attr title "packets received from network, vector(packetBytes)"
vector 91 Scenario.node[4].udp packetReceived:vector(packetBytes) ETV
attr interpolationmode none
attr source packetReceived
attr title "packets received, vector(packetBytes)"
vector 92 Scenario.node[4].udp passedUpPk:vector(count) ETV
attr interpolationmode none
attr source packetSentToUpper
attr title "packets passed up, vector(count)"
vector 93 Scenario.node[4].app[0] packetReceived:vector(packetBytes) ETV
attr interpolationmode none
attr source packetReceived
attr title "packets received, vector(packetBytes)"
vector 94 Scenario.node[4].app[0] throughput:vector ETV
attr source throughput(packetReceived)
attr title "throughput, vector"
attr unit bps
vector 95 Scenario.node[4].app[0] rcvdPkLifetime:vector ETV
attr interpolationmode none
attr source dataAge(packetReceived)
attr title "received packet lifetime, vector"
attr unit s
vector 96 Scenario.node[4].app[0] packetSent:vector(packetBytes) ETV
attr interpolationmode none
attr source packetSent
attr title "packets sent, vector(packetBytes)"
vector 97 Scenario.node[4].udp packetSent:vector(packetBytes) ETV
attr interpolationmode none
attr source packetSent
attr title "packets sent, vector(packetBytes)"
vector 98 Scenario.node[1].lo[0].lo rcvdPkFromHl:vector(packetBytes) ETV
attr interpolationmode none
attr source packetReceivedFromUpper
attr title "packets received from higher layer, vector(packetBytes)"
vector 99 Scenario.node[1].lo[0].lo passedUpPk:vector(packetBytes) ETV
attr interpolationmode none
attr source packetSentToUpper
attr title "packets passed to higher layer, vector(packetBytes)"
vector 100 Scenario.node[1].wlan[0].mac packetReceivedFromUpper:vector(packetBytes) ETV
attr interpolationmode none
attr title "packets received from upper layer, vector(packetBytes)"
vector 101 Scenario.node[1].wlan[0].mac.dcf.channelAccess.pendingQueue packetPushed:vector(packetBytes) ETV
attr interpolationmode none
attr title "packet pushed, vector(packetBytes)"
vector 102 Scenario.node[1].wlan[0].mac.dcf.channelAccess.pendingQueue queueLength:vector ETV
attr interpolationmode sample-hold
attr source "count(packetPushed) - count(packetPopped) - count(packetRemoved) - count(packetDropped)"
attr title "queue length, vector"
vector 103 Scenario.node[1].wlan[0].mac.dcf.channelAccess.contention backoffPeriodGenerated:vector ETV
attr interpolationmode none
attr title "backoff periods, vector"
vector 104 Scenario.node[2].lo[0].lo rcvdPkFromHl:vector(packetBytes) ETV
attr interpolationmode none
attr source packetReceivedFromUpper
attr title "packets received from higher layer, vector(packetBytes)"
vector 105 Scenario.node[2].lo[0].lo passedUpPk:vector(packetBytes) ETV
attr interpolationmode none
attr source packetSentToUpper
attr title "packets passed to higher layer, vector(packetBytes)"
vector 106 Scenario.node[2].wlan[0].mac packetReceivedFromUpper:vector(packetBytes) ETV
attr interpolationmode none
attr title "packets received from upper layer, vector(packetBytes)"
vector 107 Scenario.node[2].wlan[0].mac.dcf.channelAccess.pendingQueue packetPushed:vector(packetBytes) ETV
attr interpolationmode none
attr title "packet pushed, vector(packetBytes)"
vector 108 Scenario.node[2].wlan[0].mac.dcf.channelAccess.pendingQueue queueLength:vector ETV
attr interpolationmode sample-hold
attr source "count(packetPushed) - count(packetPopped) - count(packetRemoved) - count(packetDropped)"
attr title "queue length, vector"
vector 109 Scenario.node[2].wlan[0].mac.dcf.channelAccess.contention backoffPeriodGenerated:vector ETV
attr interpolationmode none
attr title "backoff periods, vector"
vector 110 Scenario.node[3].lo[0].lo rcvdPkFromHl:vector(packetBytes) ETV
attr interpolationmode none
attr source packetReceivedFromUpper
attr title "packets received from higher layer, vector(packetBytes)"
vector 111 Scenario.node[3].lo[0].lo passedUpPk:vector(packetBytes) ETV
attr interpolationmode none
attr source packetSentToUpper
attr title "packets passed to higher layer, vector(packetBytes)"
vector 112 Scenario.node[3].wlan[0].mac packetReceivedFromUpper:vector(packetBytes) ETV
attr interpolationmode none
attr title "packets received from upper layer, vector(packetBytes)"
vector 113 Scenario.node[3].wlan[0].mac.dcf.channelAccess.pendingQueue packetPushed:vector(packetBytes) ETV
attr interpolationmode none
attr title "packet pushed, vector(packetBytes)"
vector 114 Scenario.node[3].wlan[0].mac.dcf.channelAccess.pendingQueue queueLength:vector ETV
attr interpolationmode sample-hold
attr source "count(packetPushed) - count(packetPopped) - count(packetRemoved) - count(packetDropped)"
attr title "queue length, vector"
vector 115 Scenario.node[3].wlan[0].mac.dcf.channelAccess.contention backoffPeriodGenerated:vector ETV
attr interpolationmode none
attr title "backoff periods, vector"
vector 116 Scenario.node[3].wlan[0].mac.dcf.channelAccess.contention backoffActive:vector ETV
attr interpolationmode sample-hold
attr source count(backoffStarted)-count(backoffStopped)
attr title "backoff active, vector"
vector 117 Scenario.node[2].wlan[0].mac.dcf.channelAccess.contention backoffActive:vector ETV
attr interpolationmode sample-hold
attr source count(backoffStarted)-count(backoffStopped)
attr title "backoff active, vector"
vector 118 Scenario.node[1].wlan[0].mac.dcf.channelAccess.contention backoffActive:vector ETV
attr interpolationmode sample-hold
attr source count(backoffStarted)-count(backoffStopped)
attr title "backoff active, vector"
vector 119 Scenario.node[4].lo[0].lo rcvdPkFromHl:vector(packetBytes) ETV
attr interpolationmode none
attr source packetReceivedFromUpper
attr title "packets received from higher layer, vector(packetBytes)"
vector 120 Scenario.node[4].lo[0].lo passedUpPk:vector(packetBytes) ETV
attr interpolationmode none
attr source packetSentToUpper
attr title "packets passed to higher layer, vector(packetBytes)"
vector 121 Scenario.node[4].wlan[0].mac packetReceivedFromUpper:vector(packetBytes) ETV
attr interpolationmode none
attr title "packets received from upper layer, vector(packetBytes)"
vector 122 Scenario.node[4].wlan[0].mac.dcf.channelAccess.pendingQueue packetPushed:vector(packetBytes) ETV
attr interpolationmode none
attr title "packet pushed, vector(packetBytes)"
vector 123 Scenario.node[4].wlan[0].mac.dcf.channelAccess.pendingQueue queueLength:vector ETV
attr interpolationmode sample-hold
attr source "count(packetPushed) - count(packetPopped) - count(packetRemoved) - count(packetDropped)"
attr title "queue length, vector"
vector 124 Scenario.node[4].wlan[0].mac.dcf.channelAccess.contention backoffPeriodGenerated:vector ETV
attr interpolationmode none
attr title "backoff periods, vector"
vector 125 Scenario.node[4].wlan[0].mac.dcf.channelAccess.contention backoffActive:vector ETV
attr interpolationmode sample-hold
attr source count(backoffStarted)-count(backoffStopped)
attr title "backoff active, vector"
vector 126 Scenario.node[3].wlan[0].mac.dcf.channelAccess.pendingQueue packetPopped:vector(packetBytes) ETV
attr interpolationmode none
attr title "packet popped, vector(packetBytes)"
vector 127 Scenario.node[3].wlan[0].mac.dcf.channelAccess.pendingQueue queueingTime:vector ETV
attr interpolationmode none
attr source queueingTime(packetPopped)
attr title "queueing times, vector"
attr unit s
vector 128 Scenario.node[3].wlan[0].mac.dcf.channelAccess.inProgressFrames queueLength:vector ETV
attr interpolationmode sample-hold
attr source "count(packetEnqueued) - count(packetDequeued)"
attr title "queue length, vector"
vector 129 Scenario.node[3].wlan[0].mac.dcf datarateSelected:vector ETV
attr interpolationmode none
attr title "datarates selected, vector"
vector 130 Scenario.node[3].wlan[0].mac packetSentToLower:vector(packetBytes) ETV
attr interpolationmode none
attr title "packets sent to lower layer, vector(packetBytes)"
vector 131 Scenario.node[3].wlan[0].mac.dcf frameSequenceActive:vector ETV
attr interpolationmode sample-hold
attr source count(frameSequenceStarted)-count(frameSequenceFinished)
attr title "frame sequence active, vector"
vector 132 Scenario.node[3].wlan[0].radio transmissionState:vector ETV
attr interpolationmode sample-hold
attr source transmissionStateChanged
attr title "Radio transmission state, vector"
vector 133 Scenario.node[3].wlan[0].mac.dcf packetSentToPeer:vector(packetBytes) ETV
attr interpolationmode none
attr title "packets sent, vector(packetBytes)"
vector 134 Scenario.node[3].wlan[0].mac.dcf packetSentToPeerMulticast:vector(packetBytes) ETV
attr interpolationmode none
attr source ieee80211Multicast(packetSentToPeer)
attr title "packets sent: multicast, vector(packetBytes)"
vector 135 Scenario.node[3].wlan[0].mac.dcf packetSentToPeerWithoutRetry:vector(packetBytes) ETV
attr interpolationmode none
attr source ieee80211NotRetry(packetSentToPeer)
attr title "packets sent: without retry, vector(packetBytes)"
vector 136 Scenario.node[3].wlan[0].mac.dcf.channelAccess.inProgressFrames queueingTime:vector ETV
attr interpolationmode none
attr source queueingTime(packetDequeued)
attr title "queueing times, vector"
vector 137 Scenario.node[0].wlan[0].mac packetReceivedFromLower:vector(packetBytes) ETV
attr interpolationmode none
attr title "packets received from lower layer, vector(packetBytes)"
vector 138 Scenario.node[0].wlan[0].mac.dcf packetReceivedFromPeer:vector(packetBytes) ETV
attr interpolationmode none
attr title "packets received, vector(packetBytes)"
vector 139 Scenario.node[0].wlan[0].mac.dcf packetReceivedFromPeerMulticast:vector(packetBytes) ETV
attr interpolationmode none
attr source ieee80211Multicast(packetReceivedFromPeer)
attr title "packets received: multicast, vector(packetBytes)"
vector 140 Scenario.node[0].wlan[0].mac.dcf packetReceivedFromPeerWithoutRetry:vector(packetBytes) ETV
attr interpolationmode none
attr source ieee80211NotRetry(packetReceivedFromPeer)
attr title "packets received: without retry, vector(packetBytes)"
vector 141 Scenario.node[0].wlan[0].mac packetSentToUpper:vector(packetBytes) ETV
attr interpolationmode none
attr title "packets sent to upper layer, vector(packetBytes)"
vector 142 Scenario.node[4].wlan[0].mac.dcf.channelAccess.pendingQueue packetPopped:vector(packetBytes) ETV
attr interpolationmode none
attr title "packet popped, vector(packetBytes)"
vector 143 Scenario.node[4].wlan[0].mac.dcf.channelAccess.pendingQueue queueingTime:vector ETV
attr interpolationmode none
attr source queueingTime(packetPopped)
attr title "queueing times, vector"
attr unit s
vector 144 Scenario.node[4].wlan[0].mac.dcf.channelAccess.inProgressFrames queueLength:vector ETV
attr interpolationmode sample-hold
attr source "count(packetEnqueued) - count(packetDequeued)"
attr title "queue length, vector"
vector 145 Scenario.node[4].wlan[0].mac.dcf datarateSelected:vector ETV
attr interpolationmode none
attr title "datarates selected, vector"
vector 146 Scenario.node[4].wlan[0].mac packetSentToLower:vector(packetBytes) ETV
attr interpolationmode none
attr title "packets sent to lower layer, vector(packetBytes)"
vector 147 Scenario.node[4].wlan[0].mac.dcf frameSequenceActive:vector ETV
attr interpolationmode sample-hold
attr source count(frameSequenceStarted)-count(frameSequenceFinished)
attr title "frame sequence active, vector"
vector 148 Scenario.node[4].wlan[0].radio transmissionState:vector ETV
attr interpolationmode sample-hold
attr source transmissionStateChanged
attr title "Radio transmission state, vector"
vector 149 Scenario.node[4].wlan[0].mac.dcf packetSentToPeer:vector(packetBytes) ETV
attr interpolationmode none
attr title "packets sent, vector(packetBytes)"
vector 150 Scenario.node[4].wlan[0].mac.dcf packetSentToPeerMulticast:vector(packetBytes) ETV
attr interpolationmode none
attr source ieee80211Multicast(packetSentToPeer)
attr title "packets sent: multicast, vector(packetBytes)"
vector 151 Scenario.node[4].wlan[0].mac.dcf packetSentToPeerWithoutRetry:vector(packetBytes) ETV
attr interpolationmode none
attr source ieee80211NotRetry(packetSentToPeer)
attr title "packets sent: without retry, vector(packetBytes)"
vector 152 Scenario.node[4].wlan[0].mac.dcf.channelAccess.inProgressFrames queueingTime:vector ETV
attr interpolationmode none
attr source queueingTime(packetDequeued)
attr title "queueing times, vector"
vector 153 Scenario.node[2].wlan[0].mac.dcf.channelAccess.pendingQueue packetPopped:vector(packetBytes) ETV
attr interpolationmode none
attr title "packet popped, vector(packetBytes)"
vector 154 Scenario.node[2].wlan[0].mac.dcf.channelAccess.pendingQueue queueingTime:vector ETV
attr interpolationmode none
attr source queueingTime(packetPopped)
attr title "queueing times, vector"
attr unit s
vector 155 Scenario.node[2].wlan[0].mac.dcf.channelAccess.inProgressFrames queueLength:vector ETV
attr interpolationmode sample-hold
attr source "count(packetEnqueued) - count(packetDequeued)"
attr title "queue length, vector"
vector 156 Scenario.node[2].wlan[0].mac.dcf datarateSelected:vector ETV
attr interpolationmode none
attr title "datarates selected, vector"
vector 157 Scenario.node[2].wlan[0].mac packetSentToLower:vector(packetBytes) ETV
attr interpolationmode none
attr title "packets sent to lower layer, vector(packetBytes)"
vector 158 Scenario.node[2].wlan[0].mac.dcf frameSequenceActive:vector ETV
attr interpolationmode sample-hold
attr source count(frameSequenceStarted)-count(frameSequenceFinished)
attr title "frame sequence active, vector"
vector 159 Scenario.node[2].wlan[0].radio transmissionState:vector ETV
attr interpolationmode sample-hold
attr source transmissionStateChanged
attr title "Radio transmission state, vector"
vector 160 Scenario.node[2].wlan[0].mac.dcf packetSentToPeer:vector(packetBytes) ETV
attr interpolationmode none
attr title "packets sent, vector(packetBytes)"
vector 161 Scenario.node[2].wlan[0].mac.dcf packetSentToPeerMulticast:vector(packetBytes) ETV
attr interpolationmode none
attr source ieee80211Multicast(packetSentToPeer)
attr title "packets sent: multicast, vector(packetBytes)"
vector 162 Scenario.node[2].wlan[0].mac.dcf packetSentToPeerWithoutRetry:vector(packetBytes) ETV
attr interpolationmode none
attr source ieee80211NotRetry(packetSentToPeer)
attr title "packets sent: without retry, vector(packetBytes)"
vector 163 Scenario.node[2].wlan[0].mac.dcf.channelAccess.inProgressFrames queueingTime:vector ETV
attr interpolationmode none
attr source queueingTime(packetDequeued)
attr title "queueing times, vector"
vector 164 Scenario.node[1].wlan[0].mac.dcf.channelAccess.pendingQueue packetPopped:vector(packetBytes) ETV
attr interpolationmode none
attr title "packet popped, vector(packetBytes)"
vector 165 Scenario.node[1].wlan[0].mac.dcf.channelAccess.pendingQueue queueingTime:vector ETV
attr interpolationmode none
attr source queueingTime(packetPopped)
attr title "queueing times, vector"
attr unit s
vector 166 Scenario.node[1].wlan[0].mac.dcf.channelAccess.inProgressFrames queueLength:vector ETV
attr interpolationmode sample-hold
attr source "count(packetEnqueued) - count(packetDequeued)"
attr title "queue length, vector"
vector 167 Scenario.node[1].wlan[0].mac.dcf datarateSelected:vector ETV
attr interpolationmode none
attr title "datarates selected, vector"
vector 168 Scenario.node[1].wlan[0].mac packetSentToLower:vector(packetBytes) ETV
attr interpolationmode none
attr title "packets sent to lower layer, vector(packetBytes)"
vector 169 Scenario.node[1].wlan[0].mac.dcf frameSequenceActive:vector ETV
attr interpolationmode sample-hold
attr source count(frameSequenceStarted)-count(frameSequenceFinished)
attr title "frame sequence active, vector"
vector 170 Scenario.node[1].wlan[0].radio transmissionState:vector ETV
attr interpolationmode sample-hold
attr source transmissionStateChanged
attr title "Radio transmission state, vector"
vector 171 Scenario.node[1].wlan[0].mac.dcf packetSentToPeer:vector(packetBytes) ETV
attr interpolationmode none
attr title "packets sent, vector(packetBytes)"
vector 172 Scenario.node[1].wlan[0].mac.dcf packetSentToPeerMulticast:vector(packetBytes) ETV
attr interpolationmode none
attr source ieee80211Multicast(packetSentToPeer)
attr title "packets sent: multicast, vector(packetBytes)"
vector 173 Scenario.node[1].wlan[0].mac.dcf packetSentToPeerWithoutRetry:vector(packetBytes) ETV
attr interpolationmode none
attr source ieee80211NotRetry(packetSentToPeer)
attr title "packets sent: without retry, vector(packetBytes)"
vector 174 Scenario.node[1].wlan[0].mac.dcf.channelAccess.inProgressFrames queueingTime:vector ETV
attr interpolationmode none
attr source queueingTime(packetDequeued)
attr title "queueing times, vector"
0	12	1.1	0
0	12	1.1	0
0	12	1.1	2
0	280	25	3
0	287	25.000152	2
0	379	30	3
0	386	30.000152	2
1	12	1.1	3
2	12	1.1	1
2	280	25	0
2	287	25.000152	1
2	379	30	0
2	386	30.000152	1
2	439	30.000223116774	3
2	445	30.000375116774	1
2	474	30.000498298887	3
2	485	30.000650298887	1
2	508	30.000761080585	3
2	519	30.000913080585	1
2	542	30.000997236618	3
2	553	30.001149236618	1
3	12	1.1	15
4	25	2.1	0
4	25	2.1	0
4	25	2.1	2
4	539	30.000996771175	3
4	546	30.001148771175	2
5	25	2.1	3
6	25	2.1	1
6	282	25.000000110886	3
6	288	25.000152110886	1
6	384	30.000000465443	3
6	423	30.000152465443	1
6	442	30.000223581003	3
6	463	30.000375581003	1
6	476	30.000498709184	3
6	497	30.000650709184	1
6	507	30.000760771175	3
6	513	30.000912771175	1
6	539	30.000996771175	0
6	546	30.001148771175	1
7	25	2.1	15
8	38	3.1	0
8	38	3.1	0
8	38	3.1	2
8	505	30.000760648269	3
8	512	30.000912648269	2
9	38	3.1	3
10	38	3.1	1
10	283	25.000000228118	3
10	296	25.000152228118	1
10	383	30.000000432316	3
10	417	30.000152432316	1
10	441	30.000223543211	3
10	457	30.000375543211	1
10	475	30.000498648269	3
10	491	30.000650648269	1
10	505	30.000760648269	0
10	512	30.000912648269	1
10	541	30.000996894081	3
10	547	30.001148894081	1
11	38	3.1	15
12	61	5.1	0
12	61	5.1	0
12	61	5.1	2
12	437	30.000223058387	3
12	444	30.000375058387	2
13	61	5.1	3
14	61	5.1	1
14	284	25.000000362056	3
14	304	25.000152362056	1
14	381	30.000000058387	3
14	387	30.000152058387	1
14	437	30.000223058387	0
14	444	30.000375058387	1
14	473	30.000498268881	3
14	479	30.000650268881	1
14	510	30.000761133093	3
14	531	30.000913133093	1
14	543	30.000997293791	3
14	559	30.001149293791	1
15	61	5.1	15
16	74	6.1	0
16	74	6.1	0
16	74	6.1	2
16	471	30.000498163634	3
16	478	30.000650163634	2
17	74	6.1	3
18	74	6.1	1
18	285	25.000000516201	3
18	312	25.000152516201	1
18	382	30.000000135253	3
18	399	30.000152135253	1
18	440	30.000223163634	3
18	451	30.000375163634	1
18	471	30.000498163634	0
18	478	30.000650163634	1
18	509	30.000761132904	3
18	525	30.000913132904	1
18	544	30.000997316725	3
18	565	30.001149316725	1
19	74	6.1	15
20	216	20	100
20	275	25	100
21	218	20	108
21	276	25	108
22	269	25	128
22	370	30	128
23	269	25	128
23	370	30	128
24	272	25	128
24	373	30	128
24	448	30.000375116774	128
24	488	30.000650298887	128
24	522	30.000913080585	128
24	556	30.001149236618	128
25	273	25	130
25	374	30	130
26	273	25	158
26	374	30	158
27	273	25	1
27	279	25	0
27	374	30	1
27	378	30	0
28	273	25	8
28	374	30	8
29	273	25	1
29	278	25	0
29	374	30	1
29	377	30	0
30	274	25	108
30	375	30	108
30	449	30.000375116774	108
30	489	30.000650298887	108
30	523	30.000913080585	108
30	557	30.001149236618	108
31	274	25	1
31	375	30	2
31	449	30.000375116774	3
31	489	30.000650298887	4
31	523	30.000913080585	5
31	557	30.001149236618	6
32	275	25	100
32	376	30	100
32	450	30.000375116774	100
32	490	30.000650298887	100
32	524	30.000913080585	100
32	558	30.001149236618	100
33	275	0.1	0
33	275	0.2	0
33	275	0.3	0
33	275	0.4	0
33	275	0.5	0
33	275	0.6	0
33	275	0.7	0
33	275	0.8	0
33	275	0.9	0
33	275	1	0
33	275	1.1	0
33	275	1.2	0
33	275	1.3	0
33	275	1.4	0
33	275	1.5	0
33	275	1.6	0
33	275	1.7	0
33	275	1.8	0
33	275	1.9	0
33	275	2	0
33	275	2.1	0
33	275	2.2	0
33	275	2.3	0
33	275	2.4	0
33	275	2.5	0
33	275	2.6	0
33	275	2.7	0
33	275	2.8	0
33	275	2.9	0
33	275	3	0
33	275	3.1	0
33	275	3.2	0
33	275	3.3	0
33	275	3.4	0
33	275	3.5	0
33	275	3.6	0
33	275	3.7	0
33	275	3.8	0
33	275	3.9	0
33	275	4	0
33	275	4.1	0
33	275	4.2	0
33	275	4.3	0
33	275	4.4	0
33	275	4.5	0
33	275	4.6	0
33	275	4.7	0
33	275	4.8	0
33	275	4.9	0
33	275	5	0
33	275	5.1	0
33	275	5.2	0
33	275	5.3	0
33	275	5.4	0
33	275	5.5	0
33	275	5.6	0
33	275	5.7	0
33	275	5.8	0
33	275	5.9	0
33	275	6	0
33	275	6.1	0
33	275	6.2	0
33	275	6.3	0
33	275	6.4	0
33	275	6.5	0
33	275	6.6	0
33	275	6.7	0
33	275	6.8	0
33	275	6.9	0
33	275	7	0
33	275	7.1	0
33	275	7.2	0
33	275	7.3	0
33	275	7.4	0
33	275	7.5	0
33	275	7.6	0
33	275	7.7	0
33	275	7.8	0
33	275	7.9	0
33	275	8	0
33	275	8.1	0
33	275	8.2	0
33	275	8.3	0
33	275	8.4	0
33	275	8.5	0
33	275	8.6	0
33	275	8.7	0
33	275	8.8	0
33	275	8.9	0
33	275	9	0
33	275	9.1	0
33	275	9.2	0
33	275	9.3	0
33	275	9.4	0
33	275	9.5	0
33	275	9.6	0
33	275	9.7	0
33	275	9.8	0
33	275	9.9	0
33	275	10	0
33	275	10.1	0
33	275	10.2	0
33	275	10.3	0
33	275	10.4	0
33	275	10.5	0
33	275	10.6	0
33	275	10.7	0
33	275	10.8	0
33	275	10.9	0
33	275	11	0
33	275	11.1	0
33	275	11.2	0
33	275	11.3	0
33	275	11.4	0
33	275	11.5	0
33	275	11.6	0
33	275	11.7	0
33	275	11.8	0
33	275	11.9	0
33	275	12	0
33	275	12.1	0
33	275	12.2	0
33	275	12.3	0
33	275	12.4	0
33	275	12.5	0
33	275	12.6	0
33	275	12.7	0
33	275	12.8	0
33	275	12.9	0
33	275	13	0
33	275	13.1	0
33	275	13.2	0
33	275	13.3	0
33	275	13.4	0
33	275	13.5	0
33	275	13.6	0
33	275	13.7	0
33	275	13.8	0
33	275	13.9	0
33	275	14	0
33	275	14.1	0
33	275	14.2	0
33	275	14.3	0
33	275	14.4	0
33	275	14.5	0
33	275	14.6	0
33	275	14.7	0
33	275	14.8	0
33	275	14.9	0
33	275	15	0
33	275	15.1	0
33	275	15.2	0
33	275	15.3	0
33	275	15.4	0
33	275	15.5	0
33	275	15.6	0
33	275	15.7	0
33	275	15.8	0
33	275	15.9	0
33	275	16	0
33	275	16.1	0
33	275	16.2	0
33	275	16.3	0
33	275	16.4	0
33	275	16.5	0
33	275	16.6	0
33	275	16.7	0
33	275	16.8	0
33	275	16.9	0
33	275	17	0
33	275	17.1	0
33	275	17.2	0
33	275	17.3	0
33	275	17.4	0
33	275	17.5	0
33	275	17.6	0
33	275	17.7	0
33	275	17.8	0
33	275	17.9	0
33	275	18	0
33	275	18.1	0
33	275	18.2	0
33	275	18.3	0
33	275	18.4	0
33	275	18.5	0
33	275	18.6	0
33	275	18.7	0
33	275	18.8	0
33	275	18.9	0
33	275	19	0
33	275	19.1	0
33	275	19.2	0
33	275	19.3	0
33	275	19.4	0
33	275	19.5	0
33	275	19.6	0
33	275	19.7	0
33	275	19.8	0
33	275	19.9	0
33	275	20	0
33	275	20.1	0
33	275	20.2	0
33	275	20.3	0
33	275	20.4	0
33	275	20.5	0
33	275	20.6	0
33	275	20.7	0
33	275	20.8	0
33	275	20.9	0
33	275	21	0
33	275	21.1	0
33	275	21.2	0
33	275	21.3	0
33	275	21.4	0
33	275	21.5	0
33	275	21.6	0
33	275	21.7	0
33	275	21.8	0
33	275	21.9	0
33	275	22	0
33	275	22.1	0
33	275	22.2	0
33	275	22.3	0
33	275	22.4	0
33	275	22.5	0
33	275	22.6	0
33	275	22.7	0
33	275	22.8	0
33	275	22.9	0
33	275	23	0
33	275	23.1	0
33	275	23.2	0
33	275	23.3	0
33	275	23.4	0
33	275	23.5	0
33	275	23.6	0
33	275	23.7	0
33	275	23.8	0
33	275	23.9	0
33	275	24	0
33	275	24.1	0
33	275	24.2	0
33	275	24.3	0
33	275	24.4	0
33	275	24.5	0
33	275	24.6	0
33	275	24.7	0
33	275	24.8	0
33	275	24.9	0
33	275	25	0
33	376	25.1	8000
33	376	25.2	0
33	376	25.3	0
33	376	25.4	0
33	376	25.5	0
33	376	25.6	0
33	376	25.7	0
33	376	25.8	0
33	376	25.9	0
33	376	26	0
33	376	26.1	0
33	376	26.2	0
33	376	26.3	0
33	376	26.4	0
33	376	26.5	0
33	376	26.6	0
33	376	26.7	0
33	376	26.8	0
33	376	26.9	0
33	376	27	0
33	376	27.1	0
33	376	27.2	0
33	376	27.3	0
33	376	27.4	0
33	376	27.5	0
33	376	27.6	0
33	376	27.7	0
33	376	27.8	0
33	376	27.9	0
33	376	28	0
33	376	28.1	0
33	376	28.2	0
33	376	28.3	0
33	376	28.4	0
33	376	28.5	0
33	376	28.6	0
33	376	28.7	0
33	376	28.8	0
33	376	28.9	0
33	376	29	0
33	376	29.1	0
33	376	29.2	0
33	376	29.3	0
33	376	29.4	0
33	376	29.5	0
33	376	29.6	0
33	376	29.7	0
33	376	29.8	0
33	376	29.9	0
33	376	30	0
33	877	30.1	40000
33	877	30.2	0
33	877	30.3	0
33	877	30.4	0
33	877	30.5	0
33	877	30.6	0
33	877	30.7	0
33	877	30.8	0
33	877	30.9	0
33	877	31	0
33	877	31.1	0
33	877	31.2	0
33	877	31.3	0
33	877	31.4	0
33	877	31.5	0
33	877	31.6	0
33	877	31.7	0
33	877	31.8	0
33	877	31.9	0
33	877	32	0
33	877	32.1	0
33	877	32.2	0
33	877	32.3	0
33	877	32.4	0
33	877	32.5	0
33	877	32.6	0
33	877	32.7	0
33	877	32.8	0
33	877	32.9	0
33	877	33	0
33	877	33.1	0
33	877	33.2	0
33	877	33.3	0
33	877	33.4	0
33	877	33.5	0
33	877	33.6	0
33	877	33.7	0
33	877	33.8	0
33	877	33.9	0
33	877	34	0
33	877	34.1	0
33	877	34.2	0
33	877	34.3	0
33	877	34.4	0
33	877	34.5	0
33	877	34.6	0
33	877	34.7	0
33	877	34.8	0
33	877	34.9	0
33	877	35	0
33	877	35.1	0
33	877	35.2	0
33	877	35.3	0
33	877	35.4	0
33	877	35.5	0
33	877	35.6	0
33	877	35.7	0
33	877	35.8	0
33	877	35.9	0
33	877	36	0
33	877	36.1	0
33	877	36.2	0
33	877	36.3	0
33	877	36.4	0
33	877	36.5	0
33	877	36.6	0
33	877	36.7	0
33	877	36.8	0
33	877	36.9	0
33	877	37	0
33	877	37.1	0
33	877	37.2	0
33	877	37.3	0
33	877	37.4	0
33	877	37.5	0
33	877	37.6	0
33	877	37.7	0
33	877	37.8	0
33	877	37.9	0
33	877	38	0
33	877	38.1	0
33	877	38.2	0
33	877	38.3	0
33	877	38.4	0
33	877	38.5	0
33	877	38.6	0
33	877	38.7	0
33	877	38.8	0
33	877	38.9	0
33	877	39	0
33	877	39.1	0
33	877	39.2	0
33	877	39.3	0
33	877	39.4	0
33	877	39.5	0
33	877	39.6	0
33	877	39.7	0
33	877	39.8	0
33	877	39.9	0
33	877	40	0
33	877	40.1	0
33	877	40.2	0
33	877	40.3	0
33	877	40.4	0
33	877	40.5	0
33	877	40.6	0
33	877	40.7	0
33	877	40.8	0
33	877	40.9	0
33	877	41	0
33	877	41.1	0
33	877	41.2	0
33	877	41.3	0
33	877	41.4	0
33	877	41.5	0
33	877	41.6	0
33	877	41.7	0
33	877	41.8	0
33	877	41.9	0
33	877	42	0
33	877	42.1	0
33	877	42.2	0
33	877	42.3	0
33	877	42.4	0
33	877	42.5	0
33	877	42.6	0
33	877	42.7	0
33	877	42.8	0
33	877	42.9	0
33	877	43	0
33	877	43.1	0
33	877	43.2	0
33	877	43.3	0
33	877	43.4	0
33	877	43.5	0
33	877	43.6	0
33	877	43.7	0
33	877	43.8	0
33	877	43.9	0
33	877	44	0
33	877	44.1	0
33	877	44.2	0
33	877	44.3	0
33	877	44.4	0
33	877	44.5	0
33	877	44.6	0
33	877	44.7	0
33	877	44.8	0
33	877	44.9	0
33	877	45	0
33	877	45.1	0
33	877	45.2	0
33	877	45.3	0
33	877	45.4	0
33	877	45.5	0
33	877	45.6	0
33	877	45.7	0
33	877	45.8	0
33	877	45.9	0
33	877	46	0
33	877	46.1	0
33	877	46.2	0
33	877	46.3	0
33	877	46.4	0
33	877	46.5	0
33	877	46.6	0
33	877	46.7	0
33	877	46.8	0
33	877	46.9	0
33	877	47	0
33	877	47.1	0
33	877	47.2	0
33	877	47.3	0
33	877	47.4	0
33	877	47.5	0
33	877	47.6	0
33	877	47.7	0
33	877	47.8	0
33	877	47.9	0
33	877	48	0
33	877	48.1	0
33	877	48.2	0
33	877	48.3	0
33	877	48.4	0
33	877	48.5	0
33	877	48.6	0
33	877	48.7	0
33	877	48.8	0
33	877	48.9	0
33	877	49	0
33	877	49.1	0
33	877	49.2	0
33	877	49.3	0
33	877	49.4	0
33	877	49.5	0
33	877	49.6	0
33	877	49.7	0
33	877	49.8	0
33	877	49.9	0
33	877	50	0
33	877	50.1	0
33	877	50.2	0
33	877	50.3	0
33	877	50.4	0
33	877	50.5	0
33	877	50.6	0
33	877	50.7	0
33	877	50.8	0
33	877	50.9	0
33	877	51	0
33	877	51.1	0
33	877	51.2	0
33	877	51.3	0
33	877	51.4	0
33	877	51.5	0
33	877	51.6	0
33	877	51.7	0
33	877	51.8	0
33	877	51.9	0
33	877	52	0
33	877	52.1	0
33	877	52.2	0
33	877	52.3	0
33	877	52.4	0
33	877	52.5	0
33	877	52.6	0
33	877	52.7	0
33	877	52.8	0
33	877	52.9	0
33	877	53	0
33	877	53.1	0
33	877	53.2	0
33	877	53.3	0
33	877	53.4	0
33	877	53.5	0
33	877	53.6	0
33	877	53.7	0
33	877	53.8	0
33	877	53.9	0
33	877	54	0
33	877	54.1	0
33	877	54.2	0
33	877	54.3	0
33	877	54.4	0
33	877	54.5	0
33	877	54.6	0
33	877	54.7	0
33	877	54.8	0
33	877	54.9	0
33	877	55	0
33	877	55.1	0
33	877	55.2	0
33	877	55.3	0
33	877	55.4	0
33	877	55.5	0
33	877	55.6	0
33	877	55.7	0
33	877	55.8	0
33	877	55.9	0
33	877	56	0
33	877	56.1	0
33	877	56.2	0
33	877	56.3	0
33	877	56.4	0
33	877	56.5	0
33	877	56.6	0
33	877	56.7	0
33	877	56.8	0
33	877	56.9	0
33	877	57	0
33	877	57.1	0
33	877	57.2	0
33	877	57.3	0
33	877	57.4	0
33	877	57.5	0
33	877	57.6	0
33	877	57.7	0
33	877	57.8	0
33	877	57.9	0
33	877	58	0
33	877	58.1	0
33	877	58.2	0
33	877	58.3	0
33	877	58.4	0
33	877	58.5	0
33	877	58.6	0
33	877	58.7	0
33	877	58.8	0
33	877	58.9	0
33	877	59	0
33	877	59.1	0
33	877	59.2	0
33	877	59.3	0
33	877	59.4	0
33	877	59.5	0
33	877	59.6	0
33	877	59.7	0
33	877	59.8	0
33	877	59.9	0
33	877	60	0
34	275	25	5
34	376	30	10
34	450	30.000375116774	10.000375116774
34	490	30.000650298887	10.000650298887
34	524	30.000913080585	10.000913080585
34	558	30.001149236618	10.001149236618
35	279	25	158
35	378	30	158
36	279	25	0
36	378	30	0
37	279	25	1
37	286	25.000152	0
37	378	30	1
37	385	30.000152	0
38	279	25	12000000
38	378	30	12000000
39	279	25	158
39	378	30	158
40	279	25	1
40	286	25.000152	0
40	378	30	1
40	385	30.000152	0
41	280	25	1
41	281	25	2
41	286	25.000152	1
41	287	25.000152	0
41	379	30	1
41	380	30	2
41	385	30.000152	1
41	386	30.000152	0
42	286	25.000152	158
42	385	30.000152	158
43	286	25.000152	158
43	385	30.000152	158
44	286	25.000152	158
44	385	30.000152	158
45	286	25.000152	0.000152
45	385	30.000152	0.000152
46	289	25.000152110886	158
46	424	30.000152465443	158
46	464	30.000375581003	158
46	498	30.000650709184	158
46	514	30.000912771175	158
47	289	25.000152110886	158
47	424	30.000152465443	158
47	464	30.000375581003	158
47	498	30.000650709184	158
47	514	30.000912771175	158
48	289	25.000152110886	158
48	424	30.000152465443	158
48	464	30.000375581003	158
48	498	30.000650709184	158
48	514	30.000912771175	158
49	289	25.000152110886	158
49	424	30.000152465443	158
49	464	30.000375581003	158
49	498	30.000650709184	158
49	514	30.000912771175	158
50	289	25.000152110886	130
50	424	30.000152465443	130
50	464	30.000375581003	130
50	498	30.000650709184	130
50	514	30.000912771175	130
51	291	25.000152110886	128
51	395	30.000152110886	128
51	426	30.000152465443	128
51	466	30.000375581003	128
51	500	30.000650709184	128
51	516	30.000912771175	128
52	292	25.000152110886	108
52	397	30.000152110886	108
52	427	30.000152465443	108
52	467	30.000375581003	108
52	501	30.000650709184	108
52	517	30.000912771175	108
53	292	25.000152110886	1
53	397	30.000152110886	2
53	427	30.000152465443	3
53	467	30.000375581003	4
53	501	30.000650709184	5
53	517	30.000912771175	6
54	293	25.000152110886	100
54	398	30.000152110886	100
54	428	30.000152465443	100
54	468	30.000375581003	100
54	502	30.000650709184	100
54	518	30.000912771175	100
55	293	0.1	0
55	293	0.2	0
55	293	0.3	0
55	293	0.4	0
55	293	0.5	0
55	293	0.6	0
55	293	0.7	0
55	293	0.8	0
55	293	0.9	0
55	293	1	0
55	293	1.1	0
55	293	1.2	0
55	293	1.3	0
55	293	1.4	0
55	293	1.5	0
55	293	1.6	0
55	293	1.7	0
55	293	1.8	0
55	293	1.9	0
55	293	2	0
55	293	2.1	0
55	293	2.2	0
55	293	2.3	0
55	293	2.4	0
55	293	2.5	0
55	293	2.6	0
55	293	2.7	0
55	293	2.8	0
55	293	2.9	0
55	293	3	0
55	293	3.1	0
55	293	3.2	0
55	293	3.3	0
55	293	3.4	0
55	293	3.5	0
55	293	3.6	0
55	293	3.7	0
55	293	3.8	0
55	293	3.9	0
55	293	4	0
55	293	4.1	0
55	293	4.2	0
55	293	4.3	0
55	293	4.4	0
55	293	4.5	0
55	293	4.6	0
55	293	4.7	0
55	293	4.8	0
55	293	4.9	0
55	293	5	0
55	293	5.1	0
55	293	5.2	0
55	293	5.3	0
55	293	5.4	0
55	293	5.5	0
55	293	5.6	0
55	293	5.7	0
55	293	5.8	0
55	293	5.9	0
55	293	6	0
55	293	6.1	0
55	293	6.2	0
55	293	6.3	0
55	293	6.4	0
55	293	6.5	0
55	293	6.6	0
55	293	6.7	0
55	293	6.8	0
55	293	6.9	0
55	293	7	0
55	293	7.1	0
55	293	7.2	0
55	293	7.3	0
55	293	7.4	0
55	293	7.5	0
55	293	7.6	0
55	293	7.7	0
55	293	7.8	0
55	293	7.9	0
55	293	8	0
55	293	8.1	0
55	293	8.2	0
55	293	8.3	0
55	293	8.4	0
55	293	8.5	0
55	293	8.6	0
55	293	8.7	0
55	293	8.8	0
55	293	8.9	0
55	293	9	0
55	293	9.1	0
55	293	9.2	0
55	293	9.3	0
55	293	9.4	0
55	293	9.5	0
55	293	9.6	0
55	293	9.7	0
55	293	9.8	0
55	293	9.9	0
55	293	10	0
55	293	10.1	0
55	293	10.2	0
55	293	10.3	0
55	293	10.4	0
55	293	10.5	0
55	293	10.6	0
55	293	10.7	0
55	293	10.8	0
55	293	10.9	0
55	293	11	0
55	293	11.1	0
55	293	11.2	0
55	293	11.3	0
55	293	11.4	0
55	293	11.5	0
55	293	11.6	0
55	293	11.7	0
55	293	11.8	0
55	293	11.9	0
55	293	12	0
55	293	12.1	0
55	293	12.2	0
55	293	12.3	0
55	293	12.4	0
55	293	12.5	0
55	293	12.6	0
55	293	12.7	0
55	293	12.8	0
55	293	12.9	0
55	293	13	0
55	293	13.1	0
55	293	13.2	0
55	293	13.3	0
55	293	13.4	0
55	293	13.5	0
55	293	13.6	0
55	293	13.7	0
55	293	13.8	0
55	293	13.9	0
55	293	14	0
55	293	14.1	0
55	293	14.2	0
55	293	14.3	0
55	293	14.4	0
55	293	14.5	0
55	293	14.6	0
55	293	14.7	0
55	293	14.8	0
55	293	14.9	0
55	293	15	0
55	293	15.1	0
55	293	15.2	0
55	293	15.3	0
55	293	15.4	0
55	293	15.5	0
55	293	15.6	0
55	293	15.7	0
55	293	15.8	0
55	293	15.9	0
55	293	16	0
55	293	16.1	0
55	293	16.2	0
55	293	16.3	0
55	293	16.4	0
55	293	16.5	0
55	293	16.6	0
55	293	16.7	0
55	293	16.8	0
55	293	16.9	0
55	293	17	0
55	293	17.1	0
55	293	17.2	0
55	293	17.3	0
55	293	17.4	0
55	293	17.5	0
55	293	17.6	0
55	293	17.7	0
55	293	17.8	0
55	293	17.9	0
55	293	18	0
55	293	18.1	0
55	293	18.2	0
55	293	18.3	0
55	293	18.4	0
55	293	18.5	0
55	293	18.6	0
55	293	18.7	0
55	293	18.8	0
55	293	18.9	0
55	293	19	0
55	293	19.1	0
55	293	19.2	0
55	293	19.3	0
55	293	19.4	0
55	293	19.5	0
55	293	19.6	0
55	293	19.7	0
55	293	19.8	0
55	293	19.9	0
55	293	20	0
55	293	20.1	0
55	293	20.2	0
55	293	20.3	0
55	293	20.4	0
55	293	20.5	0
55	293	20.6	0
55	293	20.7	0
55	293	20.8	0
55	293	20.9	0
55	293	21	0
55	293	21.1	0
55	293	21.2	0
55	293	21.3	0
55	293	21.4	0
55	293	21.5	0
55	293	21.6	0
55	293	21.7	0
55	293	21.8	0
55	293	21.9	0
55	293	22	0
55	293	22.1	0
55	293	22.2	0
55	293	22.3	0
55	293	22.4	0
55	293	22.5	0
55	293	22.6	0
55	293	22.7	0
55	293	22.8	0
55	293	22.9	0
55	293	23	0
55	293	23.1	0
55	293	23.2	0
55	293	23.3	0
55	293	23.4	0
55	293	23.5	0
55	293	23.6	0
55	293	23.7	0
55	293	23.8	0
55	293	23.9	0
55	293	24	0
55	293	24.1	0
55	293	24.2	0
55	293	24.3	0
55	293	24.4	0
55	293	24.5	0
55	293	24.6	0
55	293	24.7	0
55	293	24.8	0
55	293	24.9	0
55	293	25	0
55	398	25.1	8000
55	398	25.2	0
55	398	25.3	0
55	398	25.4	0
55	398	25.5	0
55	398	25.6	0
55	398	25.7	0
55	398	25.8	0
55	398	25.9	0
55	398	26	0
55	398	26.1	0
55	398	26.2	0
55	398	26.3	0
55	398	26.4	0
55	398	26.5	0
55	398	26.6	0
55	398	26.7	0
55	398	26.8	0
55	398	26.9	0
55	398	27	0
55	398	27.1	0
55	398	27.2	0
55	398	27.3	0
55	398	27.4	0
55	398	27.5	0
55	398	27.6	0
55	398	27.7	0
55	398	27.8	0
55	398	27.9	0
55	398	28	0
55	398	28.1	0
55	398	28.2	0
55	398	28.3	0
55	398	28.4	0
55	398	28.5	0
55	398	28.6	0
55	398	28.7	0
55	398	28.8	0
55	398	28.9	0
55	398	29	0
55	398	29.1	0
55	398	29.2	0
55	398	29.3	0
55	398	29.4	0
55	398	29.5	0
55	398	29.6	0
55	398	29.7	0
55	398	29.8	0
55	398	29.9	0
55	398	30	0
55	877	30.1	40000
55	877	30.2	0
55	877	30.3	0
55	877	30.4	0
55	877	30.5	0
55	877	30.6	0
55	877	30.7	0
55	877	30.8	0
55	877	30.9	0
55	877	31	0
55	877	31.1	0
55	877	31.2	0
55	877	31.3	0
55	877	31.4	0
55	877	31.5	0
55	877	31.6	0
55	877	31.7	0
55	877	31.8	0
55	877	31.9	0
55	877	32	0
55	877	32.1	0
55	877	32.2	0
55	877	32.3	0
55	877	32.4	0
55	877	32.5	0
55	877	32.6	0
55	877	32.7	0
55	877	32.8	0
55	877	32.9	0
55	877	33	0
55	877	33.1	0
55	877	33.2	0
55	877	33.3	0
55	877	33.4	0
55	877	33.5	0
55	877	33.6	0
55	877	33.7	0
55	877	33.8	0
55	877	33.9	0
55	877	34	0
55	877	34.1	0
55	877	34.2	0
55	877	34.3	0
55	877	34.4	0
55	877	34.5	0
55	877	34.6	0
55	877	34.7	0
55	877	34.8	0
55	877	34.9	0
55	877	35	0
55	877	35.1	0
55	877	35.2	0
55	877	35.3	0
55	877	35.4	0
55	877	35.5	0
55	877	35.6	0
55	877	35.7	0
55	877	35.8	0
55	877	35.9	0
55	877	36	0
55	877	36.1	0
55	877	36.2	0
55	877	36.3	0
55	877	36.4	0
55	877	36.5	0
55	877	36.6	0
55	877	36.7	0
55	877	36.8	0
55	877	36.9	0
55	877	37	0
55	877	37.1	0
55	877	37.2	0
55	877	37.3	0
55	877	37.4	0
55	877	37.5	0
55	877	37.6	0
55	877	37.7	0
55	877	37.8	0
55	877	37.9	0
55	877	38	0
55	877	38.1	0
55	877	38.2	0
55	877	38.3	0
55	877	38.4	0
55	877	38.5	0
55	877	38.6	0
55	877	38.7	0
55	877	38.8	0
55	877	38.9	0
55	877	39	0
55	877	39.1	0
55	877	39.2	0
55	877	39.3	0
55	877	39.4	0
55	877	39.5	0
55	877	39.6	0
55	877	39.7	0
55	877	39.8	0
55	877	39.9	0
55	877	40	0
55	877	40.1	0
55	877	40.2	0
55	877	40.3	0
55	877	40.4	0
55	877	40.5	0
55	877	40.6	0
55	877	40.7	0
55	877	40.8	0
55	877	40.9	0
55	877	41	0
55	877	41.1	0
55	877	41.2	0
55	877	41.3	0
55	877	41.4	0
55	877	41.5	0
55	877	41.6	0
55	877	41.7	0
55	877	41.8	0
55	877	41.9	0
55	877	42	0
55	877	42.1	0
55	877	42.2	0
55	877	42.3	0
55	877	42.4	0
55	877	42.5	0
55	877	42.6	0
55	877	42.7	0
55	877	42.8	0
55	877	42.9	0
55	877	43	0
55	877	43.1	0
55	877	43.2	0
55	877	43.3	0
55	877	43.4	0
55	877	43.5	0
55	877	43.6	0
55	877	43.7	0
55	877	43.8	0
55	877	43.9	0
55	877	44	0
55	877	44.1	0
55	877	44.2	0
55	877	44.3	0
55	877	44.4	0
55	877	44.5	0
55	877	44.6	0
55	877	44.7	0
55	877	44.8	0
55	877	44.9	0
55	877	45	0
55	877	45.1	0
55	877	45.2	0
55	877	45.3	0
55	877	45.4	0
55	877	45.5	0
55	877	45.6	0
55	877	45.7	0
55	877	45.8	0
55	877	45.9	0
55	877	46	0
55	877	46.1	0
55	877	46.2	0
55	877	46.3	0
55	877	46.4	0
55	877	46.5	0
55	877	46.6	0
55	877	46.7	0
55	877	46.8	0
55	877	46.9	0
55	877	47	0
55	877	47.1	0
55	877	47.2	0
55	877	47.3	0
55	877	47.4	0
55	877	47.5	0
55	877	47.6	0
55	877	47.7	0
55	877	47.8	0
55	877	47.9	0
55	877	48	0
55	877	48.1	0
55	877	48.2	0
55	877	48.3	0
55	877	48.4	0
55	877	48.5	0
55	877	48.6	0
55	877	48.7	0
55	877	48.8	0
55	877	48.9	0
55	877	49	0
55	877	49.1	0
55	877	49.2	0
55	877	49.3	0
55	877	49.4	0
55	877	49.5	0
55	877	49.6	0
55	877	49.7	0
55	877	49.8	0
55	877	49.9	0
55	877	50	0
55	877	50.1	0
55	877	50.2	0
55	877	50.3	0
55	877	50.4	0
55	877	50.5	0
55	877	50.6	0
55	877	50.7	0
55	877	50.8	0
55	877	50.9	0
55	877	51	0
55	877	51.1	0
55	877	51.2	0
55	877	51.3	0
55	877	51.4	0
55	877	51.5	0
55	877	51.6	0
55	877	51.7	0
55	877	51.8	0
55	877	51.9	0
55	877	52	0
55	877	52.1	0
55	877	52.2	0
55	877	52.3	0
55	877	52.4	0
55	877	52.5	0
55	877	52.6	0
55	877	52.7	0
55	877	52.8	0
55	877	52.9	0
55	877	53	0
55	877	53.1	0
55	877	53.2	0
55	877	53.3	0
55	877	53.4	0
55	877	53.5	0
55	877	53.6	0
55	877	53.7	0
55	877	53.8	0
55	877	53.9	0
55	877	54	0
55	877	54.1	0
55	877	54.2	0
55	877	54.3	0
55	877	54.4	0
55	877	54.5	0
55	877	54.6	0
55	877	54.7	0
55	877	54.8	0
55	877	54.9	0
55	877	55	0
55	877	55.1	0
55	877	55.2	0
55	877	55.3	0
55	877	55.4	0
55	877	55.5	0
55	877	55.6	0
55	877	55.7	0
55	877	55.8	0
55	877	55.9	0
55	877	56	0
55	877	56.1	0
55	877	56.2	0
55	877	56.3	0
55	877	56.4	0
55	877	56.5	0
55	877	56.6	0
55	877	56.7	0
55	877	56.8	0
55	877	56.9	0
55	877	57	0
55	877	57.1	0
55	877	57.2	0
55	877	57.3	0
55	877	57.4	0
55	877	57.5	0
55	877	57.6	0
55	877	57.7	0
55	877	57.8	0
55	877	57.9	0
55	877	58	0
55	877	58.1	0
55	877	58.2	0
55	877	58.3	0
55	877	58.4	0
55	877	58.5	0
55	877	58.6	0
55	877	58.7	0
55	877	58.8	0
55	877	58.9	0
55	877	59	0
55	877	59.1	0
55	877	59.2	0
55	877	59.3	0
55	877	59.4	0
55	877	59.5	0
55	877	59.6	0
55	877	59.7	0
55	877	59.8	0
55	877	59.9	0
55	877	60	0
56	293	25.000152110886	5.000152110886
56	398	30.000152110886	10.000152110886
56	428	30.000152465443	10.000152465443
56	468	30.000375581003	10.000375581003
56	502	30.000650709184	10.000650709184
56	518	30.000912771175	10.000912771175
57	293	25.000152110886	100
58	294	25.000152110886	108
59	297	25.000152228118	158
59	418	30.000152432316	158
59	458	30.000375543211	158
59	492	30.000650648269	158
59	548	30.001148894081	158
60	297	25.000152228118	158
60	418	30.000152432316	158
60	458	30.000375543211	158
60	492	30.000650648269	158
60	548	30.001148894081	158
61	297	25.000152228118	158
61	418	30.000152432316	158
61	458	30.000375543211	158
61	492	30.000650648269	158
61	548	30.001148894081	158
62	297	25.000152228118	158
62	418	30.000152432316	158
62	458	30.000375543211	158
62	492	30.000650648269	158
62	548	30.001148894081	158
63	297	25.000152228118	130
63	418	30.000152432316	130
63	458	30.000375543211	130
63	492	30.000650648269	130
63	548	30.001148894081	130
64	299	25.000152228118	128
64	407	30.000152228118	128
64	420	30.000152432316	128
64	460	30.000375543211	128
64	494	30.000650648269	128
64	550	30.001148894081	128
65	300	25.000152228118	108
65	409	30.000152228118	108
65	421	30.000152432316	108
65	461	30.000375543211	108
65	495	30.000650648269	108
65	551	30.001148894081	108
66	300	25.000152228118	1
66	409	30.000152228118	2
66	421	30.000152432316	3
66	461	30.000375543211	4
66	495	30.000650648269	5
66	551	30.001148894081	6
67	301	25.000152228118	100
67	410	30.000152228118	100
67	422	30.000152432316	100
67	462	30.000375543211	100
67	496	30.000650648269	100
67	552	30.001148894081	100
68	301	0.1	0
68	301	0.2	0
68	301	0.3	0
68	301	0.4	0
68	301	0.5	0
68	301	0.6	0
68	301	0.7	0
68	301	0.8	0
68	301	0.9	0
68	301	1	0
68	301	1.1	0
68	301	1.2	0
68	301	1.3	0
68	301	1.4	0
68	301	1.5	0
68	301	1.6	0
68	301	1.7	0
68	301	1.8	0
68	301	1.9	0
68	301	2	0
68	301	2.1	0
68	301	2.2	0
68	301	2.3	0
68	301	2.4	0
68	301	2.5	0
68	301	2.6	0
68	301	2.7	0
68	301	2.8	0
68	301	2.9	0
68	301	3	0
68	301	3.1	0
68	301	3.2	0
68	301	3.3	0
68	301	3.4	0
68	301	3.5	0
68	301	3.6	0
68	301	3.7	0
68	301	3.8	0
68	301	3.9	0
68	301	4	0
68	301	4.1	0
68	301	4.2	0
68	301	4.3	0
68	301	4.4	0
68	301	4.5	0
68	301	4.6	0
68	301	4.7	0
68	301	4.8	0
68	301	4.9	0
68	301	5	0
68	301	5.1	0
68	301	5.2	0
68	301	5.3	0
68	301	5.4	0
68	301	5.5	0
68	301	5.6	0
68	301	5.7	0
68	301	5.8	0
68	301	5.9	0
68	301	6	0
68	301	6.1	0
68	301	6.2	0
68	301	6.3	0
68	301	6.4	0
68	301	6.5	0
68	301	6.6	0
68	301	6.7	0
68	301	6.8	0
68	301	6.9	0
68	301	7	0
68	301	7.1	0
68	301	7.2	0
68	301	7.3	0
68	301	7.4	0
68	301	7.5	0
68	301	7.6	0
68	301	7.7	0
68	301	7.8	0
68	301	7.9	0
68	301	8	0
68	301	8.1	0
68	301	8.2	0
68	301	8.3	0
68	301	8.4	0
68	301	8.5	0
68	301	8.6	0
68	301	8.7	0
68	301	8.8	0
68	301	8.9	0
68	301	9	0
68	301	9.1	0
68	301	9.2	0
68	301	9.3	0
68	301	9.4	0
68	301	9.5	0
68	301	9.6	0
68	301	9.7	0
68	301	9.8	0
68	301	9.9	0
68	301	10	0
68	301	10.1	0
68	301	10.2	0
68	301	10.3	0
68	301	10.4	0
68	301	10.5	0
68	301	10.6	0
68	301	10.7	0
68	301	10.8	0
68	301	10.9	0
68	301	11	0
68	301	11.1	0
68	301	11.2	0
68	301	11.3	0
68	301	11.4	0
68	301	11.5	0
68	301	11.6	0
68	301	11.7	0
68	301	11.8	0
68	301	11.9	0
68	301	12	0
68	301	12.1	0
68	301	12.2	0
68	301	12.3	0
68	301	12.4	0
68	301	12.5	0
68	301	12.6	0
68	301	12.7	0
68	301	12.8	0
68	301	12.9	0
68	301	13	0
68	301	13.1	0
68	301	13.2	0
68	301	13.3	0
68	301	13.4	0
68	301	13.5	0
68	301	13.6	0
68	301	13.7	0
68	301	13.8	0
68	301	13.9	0
68	301	14	0
68	301	14.1	0
68	301	14.2	0
68	301	14.3	0
68	301	14.4	0
68	301	14.5	0
68	301	14.6	0
68	301	14.7	0
68	301	14.8	0
68	301	14.9	0
68	301	15	0
68	301	15.1	0
68	301	15.2	0
68	301	15.3	0
68	301	15.4	0
68	301	15.5	0
68	301	15.6	0
68	301	15.7	0
68	301	15.8	0
68	301	15.9	0
68	301	16	0
68	301	16.1	0
68	301	16.2	0
68	301	16.3	0
68	301	16.4	0
68	301	16.5	0
68	301	16.6	0
68	301	16.7	0
68	301	16.8	0
68	301	16.9	0
68	301	17	0
68	301	17.1	0
68	301	17.2	0
68	301	17.3	0
68	301	17.4	0
68	301	17.5	0
68	301	17.6	0
68	301	17.7	0
68	301	17.8	0
68	301	17.9	0
68	301	18	0
68	301	18.1	0
68	301	18.2	0
68	301	18.3	0
68	301	18.4	0
68	301	18.5	0
68	301	18.6	0
68	301	18.7	0
68	301	18.8	0
68	301	18.9	0
68	301	19	0
68	301	19.1	0
68	301	19.2	0
68	301	19.3	0
68	301	19.4	0
68	301	19.5	0
68	301	19.6	0
68	301	19.7	0
68	301	19.8	0
68	301	19.9	0
68	301	20	0
68	301	20.1	0
68	301	20.2	0
68	301	20.3	0
68	301	20.4	0
68	301	20.5	0
68	301	20.6	0
68	301	20.7	0
68	301	20.8	0
68	301	20.9	0
68	301	21	0
68	301	21.1	0
68	301	21.2	0
68	301	21.3	0
68	301	21.4	0
68	301	21.5	0
68	301	21.6	0
68	301	21.7	0
68	301	21.8	0
68	301	21.9	0
68	301	22	0
68	301	22.1	0
68	301	22.2	0
68	301	22.3	0
68	301	22.4	0
68	301	22.5	0
68	301	22.6	0
68	301	22.7	0
68	301	22.8	0
68	301	22.9	0
68	301	23	0
68	301	23.1	0
68	301	23.2	0
68	301	23.3	0
68	301	23.4	0
68	301	23.5	0
68	301	23.6	0
68	301	23.7	0
68	301	23.8	0
68	301	23.9	0
68	301	24	0
68	301	24.1	0
68	301	24.2	0
68	301	24.3	0
68	301	24.4	0
68	301	24.5	0
68	301	24.6	0
68	301	24.7	0
68	301	24.8	0
68	301	24.9	0
68	301	25	0
68	410	25.1	8000
68	410	25.2	0
68	410	25.3	0
68	410	25.4	0
68	410	25.5	0
68	410	25.6	0
68	410	25.7	0
68	410	25.8	0
68	410	25.9	0
68	410	26	0
68	410	26.1	0
68	410	26.2	0
68	410	26.3	0
68	410	26.4	0
68	410	26.5	0
68	410	26.6	0
68	410	26.7	0
68	410	26.8	0
68	410	26.9	0
68	410	27	0
68	410	27.1	0
68	410	27.2	0
68	410	27.3	0
68	410	27.4	0
68	410	27.5	0
68	410	27.6	0
68	410	27.7	0
68	410	27.8	0
68	410	27.9	0
68	410	28	0
68	410	28.1	0
68	410	28.2	0
68	410	28.3	0
68	410	28.4	0
68	410	28.5	0
68	410	28.6	0
68	410	28.7	0
68	410	28.8	0
68	410	28.9	0
68	410	29	0
68	410	29.1	0
68	410	29.2	0
68	410	29.3	0
68	410	29.4	0
68	410	29.5	0
68	410	29.6	0
68	410	29.7	0
68	410	29.8	0
68	410	29.9	0
68	410	30	0
68	877	30.1	40000
68	877	30.2	0
68	877	30.3	0
68	877	30.4	0
68	877	30.5	0
68	877	30.6	0
68	877	30.7	0
68	877	30.8	0
68	877	30.9	0
68	877	31	0
68	877	31.1	0
68	877	31.2	0
68	877	31.3	0
68	877	31.4	0
68	877	31.5	0
68	877	31.6	0
68	877	31.7	0
68	877	31.8	0
68	877	31.9	0
68	877	32	0
68	877	32.1	0
68	877	32.2	0
68	877	32.3	0
68	877	32.4	0
68	877	32.5	0
68	877	32.6	0
68	877	32.7	0
68	877	32.8	0
68	877	32.9	0
68	877	33	0
68	877	33.1	0
68	877	33.2	0
68	877	33.3	0
68	877	33.4	0
68	877	33.5	0
68	877	33.6	0
68	877	33.7	0
68	877	33.8	0
68	877	33.9	0
68	877	34	0
68	877	34.1	0
68	877	34.2	0
68	877	34.3	0
68	877	34.4	0
68	877	34.5	0
68	877	34.6	0
68	877	34.7	0
68	877	34.8	0
68	877	34.9	0
68	877	35	0
68	877	35.1	0
68	877	35.2	0
68	877	35.3	0
68	877	35.4	0
68	877	35.5	0
68	877	35.6	0
68	877	35.7	0
68	877	35.8	0
68	877	35.9	0
68	877	36	0
68	877	36.1	0
68	877	36.2	0
68	877	36.3	0
68	877	36.4	0
68	877	36.5	0
68	877	36.6	0
68	877	36.7	0
68	877	36.8	0
68	877	36.9	0
68	877	37	0
68	877	37.1	0
68	877	37.2	0
68	877	37.3	0
68	877	37.4	0
68	877	37.5	0
68	877	37.6	0
68	877	37.7	0
68	877	37.8	0
68	877	37.9	0
68	877	38	0
68	877	38.1	0
68	877	38.2	0
68	877	38.3	0
68	877	38.4	0
68	877	38.5	0
68	877	38.6	0
68	877	38.7	0
68	877	38.8	0
68	877	38.9	0
68	877	39	0
68	877	39.1	0
68	877	39.2	0
68	877	39.3	0
68	877	39.4	0
68	877	39.5	0
68	877	39.6	0
68	877	39.7	0
68	877	39.8	0
68	877	39.9	0
68	877	40	0
68	877	40.1	0
68	877	40.2	0
68	877	40.3	0
68	877	40.4	0
68	877	40.5	0
68	877	40.6	0
68	877	40.7	0
68	877	40.8	0
68	877	40.9	0
68	877	41	0
68	877	41.1	0
68	877	41.2	0
68	877	41.3	0
68	877	41.4	0
68	877	41.5	0
68	877	41.6	0
68	877	41.7	0
68	877	41.8	0
68	877	41.9	0
68	877	42	0
68	877	42.1	0
68	877	42.2	0
68	877	42.3	0
68	877	42.4	0
68	877	42.5	0
68	877	42.6	0
68	877	42.7	0
68	877	42.8	0
68	877	42.9	0
68	877	43	0
68	877	43.1	0
68	877	43.2	0
68	877	43.3	0
68	877	43.4	0
68	877	43.5	0
68	877	43.6	0
68	877	43.7	0
68	877	43.8	0
68	877	43.9	0
68	877	44	0
68	877	44.1	0
68	877	44.2	0
68	877	44.3	0
68	877	44.4	0
68	877	44.5	0
68	877	44.6	0
68	877	44.7	0
68	877	44.8	0
68	877	44.9	0
68	877	45	0
68	877	45.1	0
68	877	45.2	0
68	877	45.3	0
68	877	45.4	0
68	877	45.5	0
68	877	45.6	0
68	877	45.7	0
68	877	45.8	0
68	877	45.9	0
68	877	46	0
68	877	46.1	0
68	877	46.2	0
68	877	46.3	0
68	877	46.4	0
68	877	46.5	0
68	877	46.6	0
68	877	46.7	0
68	877	46.8	0
68	877	46.9	0
68	877	47	0
68	877	47.1	0
68	877	47.2	0
68	877	47.3	0
68	877	47.4	0
68	877	47.5	0
68	877	47.6	0
68	877	47.7	0
68	877	47.8	0
68	877	47.9	0
68	877	48	0
68	877	48.1	0
68	877	48.2	0
68	877	48.3	0
68	877	48.4	0
68	877	48.5	0
68	877	48.6	0
68	877	48.7	0
68	877	48.8	0
68	877	48.9	0
68	877	49	0
68	877	49.1	0
68	877	49.2	0
68	877	49.3	0
68	877	49.4	0
68	877	49.5	0
68	877	49.6	0
68	877	49.7	0
68	877	49.8	0
68	877	49.9	0
68	877	50	0
68	877	50.1	0
68	877	50.2	0
68	877	50.3	0
68	877	50.4	0
68	877	50.5	0
68	877	50.6	0
68	877	50.7	0
68	877	50.8	0
68	877	50.9	0
68	877	51	0
68	877	51.1	0
68	877	51.2	0
68	877	51.3	0
68	877	51.4	0
68	877	51.5	0
68	877	51.6	0
68	877	51.7	0
68	877	51.8	0
68	877	51.9	0
68	877	52	0
68	877	52.1	0
68	877	52.2	0
68	877	52.3	0
68	877	52.4	0
68	877	52.5	0
68	877	52.6	0
68	877	52.7	0
68	877	52.8	0
68	877	52.9	0
68	877	53	0
68	877	53.1	0
68	877	53.2	0
68	877	53.3	0
68	877	53.4	0
68	877	53.5	0
68	877	53.6	0
68	877	53.7	0
68	877	53.8	0
68	877	53.9	0
68	877	54	0
68	877	54.1	0
68	877	54.2	0
68	877	54.3	0
68	877	54.4	0
68	877	54.5	0
68	877	54.6	0
68	877	54.7	0
68	877	54.8	0
68	877	54.9	0
68	877	55	0
68	877	55.1	0
68	877	55.2	0
68	877	55.3	0
68	877	55.4	0
68	877	55.5	0
68	877	55.6	0
68	877	55.7	0
68	877	55.8	0
68	877	55.9	0
68	877	56	0
68	877	56.1	0
68	877	56.2	0
68	877	56.3	0
68	877	56.4	0
68	877	56.5	0
68	877	56.6	0
68	877	56.7	0
68	877	56.8	0
68	877	56.9	0
68	877	57	0
68	877	57.1	0
68	877	57.2	0
68	877	57.3	0
68	877	57.4	0
68	877	57.5	0
68	877	57.6	0
68	877	57.7	0
68	877	57.8	0
68	877	57.9	0
68	877	58	0
68	877	58.1	0
68	877	58.2	0
68	877	58.3	0
68	877	58.4	0
68	877	58.5	0
68	877	58.6	0
68	877	58.7	0
68	877	58.8	0
68	877	58.9	0
68	877	59	0
68	877	59.1	0
68	877	59.2	0
68	877	59.3	0
68	877	59.4	0
68	877	59.5	0
68	877	59.6	0
68	877	59.7	0
68	877	59.8	0
68	877	59.9	0
68	877	60	0
69	301	25.000152228118	5.000152228118
69	410	30.000152228118	10.000152228118
69	422	30.000152432316	10.000152432316
69	462	30.000375543211	10.000375543211
69	496	30.000650648269	10.000650648269
69	552	30.001148894081	10.001148894081
70	301	25.000152228118	100
71	302	25.000152228118	108
72	305	25.000152362056	158
72	388	30.000152058387	158
72	480	30.000650268881	158
72	532	30.000913133093	158
72	560	30.001149293791	158
73	305	25.000152362056	158
73	388	30.000152058387	158
73	480	30.000650268881	158
73	532	30.000913133093	158
73	560	30.001149293791	158
74	305	25.000152362056	158
74	388	30.000152058387	158
74	480	30.000650268881	158
74	532	30.000913133093	158
74	560	30.001149293791	158
75	305	25.000152362056	158
75	388	30.000152058387	158
75	480	30.000650268881	158
75	532	30.000913133093	158
75	560	30.001149293791	158
76	305	25.000152362056	130
76	388	30.000152058387	130
76	480	30.000650268881	130
76	532	30.000913133093	130
76	560	30.001149293791	130
77	307	25.000152362056	128
77	390	30.000152058387	128
77	413	30.000152362056	128
77	482	30.000650268881	128
77	534	30.000913133093	128
77	562	30.001149293791	128
78	308	25.000152362056	108
78	391	30.000152058387	108
78	415	30.000152362056	108
78	483	30.000650268881	108
78	535	30.000913133093	108
78	563	30.001149293791	108
79	308	25.000152362056	1
79	391	30.000152058387	2
79	415	30.000152362056	3
79	483	30.000650268881	4
79	535	30.000913133093	5
79	563	30.001149293791	6
80	309	25.000152362056	100
80	392	30.000152058387	100
80	416	30.000152362056	100
80	484	30.000650268881	100
80	536	30.000913133093	100
80	564	30.001149293791	100
81	309	0.1	0
81	309	0.2	0
81	309	0.3	0
81	309	0.4	0
81	309	0.5	0
81	309	0.6	0
81	309	0.7	0
81	309	0.8	0
81	309	0.9	0
81	309	1	0
81	309	1.1	0
81	309	1.2	0
81	309	1.3	0
81	309	1.4	0
81	309	1.5	0
81	309	1.6	0
81	309	1.7	0
81	309	1.8	0
81	309	1.9	0
81	309	2	0
81	309	2.1	0
81	309	2.2	0
81	309	2.3	0
81	309	2.4	0
81	309	2.5	0
81	309	2.6	0
81	309	2.7	0
81	309	2.8	0
81	309	2.9	0
81	309	3	0
81	309	3.1	0
81	309	3.2	0
81	309	3.3	0
81	309	3.4	0
81	309	3.5	0
81	309	3.6	0
81	309	3.7	0
81	309	3.8	0
81	309	3.9	0
81	309	4	0
81	309	4.1	0
81	309	4.2	0
81	309	4.3	0
81	309	4.4	0
81	309	4.5	0
81	309	4.6	0
81	309	4.7	0
81	309	4.8	0
81	309	4.9	0
81	309	5	0
81	309	5.1	0
81	309	5.2	0
81	309	5.3	0
81	309	5.4	0
81	309	5.5	0
81	309	5.6	0
81	309	5.7	0
81	309	5.8	0
81	309	5.9	0
81	309	6	0
81	309	6.1	0
81	309	6.2	0
81	309	6.3	0
81	309	6.4	0
81	309	6.5	0
81	309	6.6	0
81	309	6.7	0
81	309	6.8	0
81	309	6.9	0
81	309	7	0
81	309	7.1	0
81	309	7.2	0
81	309	7.3	0
81	309	7.4	0
81	309	7.5	0
81	309	7.6	0
81	309	7.7	0
81	309	7.8	0
81	309	7.9	0
81	309	8	0
81	309	8.1	0
81	309	8.2	0
81	309	8.3	0
81	309	8.4	0
81	309	8.5	0
81	309	8.6	0
81	309	8.7	0
81	309	8.8	0
81	309	8.9	0
81	309	9	0
81	309	9.1	0
81	309	9.2	0
81	309	9.3	0
81	309	9.4	0
81	309	9.5	0
81	309	9.6	0
81	309	9.7	0
81	309	9.8	0
81	309	9.9	0
81	309	10	0
81	309	10.1	0
81	309	10.2	0
81	309	10.3	0
81	309	10.4	0
81	309	10.5	0
81	309	10.6	0
81	309	10.7	0
81	309	10.8	0
81	309	10.9	0
81	309	11	0
81	309	11.1	0
81	309	11.2	0
81	309	11.3	0
81	309	11.4	0
81	309	11.5	0
81	309	11.6	0
81	309	11.7	0
81	309	11.8	0
81	309	11.9	0
81	309	12	0
81	309	12.1	0
81	309	12.2	0
81	309	12.3	0
81	309	12.4	0
81	309	12.5	0
81	309	12.6	0
81	309	12.7	0
81	309	12.8	0
81	309	12.9	0
81	309	13	0
81	309	13.1	0
81	309	13.2	0
81	309	13.3	0
81	309	13.4	0
81	309	13.5	0
81	309	13.6	0
81	309	13.7	0
81	309	13.8	0
81	309	13.9	0
81	309	14	0
81	309	14.1	0
81	309	14.2	0
81	309	14.3	0
81	309	14.4	0
81	309	14.5	0
81	309	14.6	0
81	309	14.7	0
81	309	14.8	0
81	309	14.9	0
81	309	15	0
81	309	15.1	0
81	309	15.2	0
81	309	15.3	0
81	309	15.4	0
81	309	15.5	0
81	309	15.6	0
81	309	15.7	0
81	309	15.8	0
81	309	15.9	0
81	309	16	0
81	309	16.1	0
81	309	16.2	0
81	309	16.3	0
81	309	16.4	0
81	309	16.5	0
81	309	16.6	0
81	309	16.7	0
81	309	16.8	0
81	309	16.9	0
81	309	17	0
81	309	17.1	0
81	309	17.2	0
81	309	17.3	0
81	309	17.4	0
81	309	17.5	0
81	309	17.6	0
81	309	17.7	0
81	309	17.8	0
81	309	17.9	0
81	309	18	0
81	309	18.1	0
81	309	18.2	0
81	309	18.3	0
81	309	18.4	0
81	309	18.5	0
81	309	18.6	0
81	309	18.7	0
81	309	18.8	0
81	309	18.9	0
81	309	19	0
81	309	19.1	0
81	309	19.2	0
81	309	19.3	0
81	309	19.4	0
81	309	19.5	0
81	309	19.6	0
81	309	19.7	0
81	309	19.8	0
81	309	19.9	0
81	309	20	0
81	309	20.1	0
81	309	20.2	0
81	309	20.3	0
81	309	20.4	0
81	309	20.5	0
81	309	20.6	0
81	309	20.7	0
81	309	20.8	0
81	309	20.9	0
81	309	21	0
81	309	21.1	0
81	309	21.2	0
81	309	21.3	0
81	309	21.4	0
81	309	21.5	0
81	309	21.6	0
81	309	21.7	0
81	309	21.8	0
81	309	21.9	0
81	309	22	0
81	309	22.1	0
81	309	22.2	0
81	309	22.3	0
81	309	22.4	0
81	309	22.5	0
81	309	22.6	0
81	309	22.7	0
81	309	22.8	0
81	309	22.9	0
81	309	23	0
81	309	23.1	0
81	309	23.2	0
81	309	23.3	0
81	309	23.4	0
81	309	23.5	0
81	309	23.6	0
81	309	23.7	0
81	309	23.8	0
81	309	23.9	0
81	309	24	0
81	309	24.1	0
81	309	24.2	0
81	309	24.3	0
81	309	24.4	0
81	309	24.5	0
81	309	24.6	0
81	309	24.7	0
81	309	24.8	0
81	309	24.9	0
81	309	25	0
81	392	25.1	8000
81	392	25.2	0
81	392	25.3	0
81	392	25.4	0
81	392	25.5	0
81	392	25.6	0
81	392	25.7	0
81	392	25.8	0
81	392	25.9	0
81	392	26	0
81	392	26.1	0
81	392	26.2	0
81	392	26.3	0
81	392	26.4	0
81	392	26.5	0
81	392	26.6	0
81	392	26.7	0
81	392	26.8	0
81	392	26.9	0
81	392	27	0
81	392	27.1	0
81	392	27.2	0
81	392	27.3	0
81	392	27.4	0
81	392	27.5	0
81	392	27.6	0
81	392	27.7	0
81	392	27.8	0
81	392	27.9	0
81	392	28	0
81	392	28.1	0
81	392	28.2	0
81	392	28.3	0
81	392	28.4	0
81	392	28.5	0
81	392	28.6	0
81	392	28.7	0
81	392	28.8	0
81	392	28.9	0
81	392	29	0
81	392	29.1	0
81	392	29.2	0
81	392	29.3	0
81	392	29.4	0
81	392	29.5	0
81	392	29.6	0
81	392	29.7	0
81	392	29.8	0
81	392	29.9	0
81	392	30	0
81	877	30.1	40000
81	877	30.2	0
81	877	30.3	0
81	877	30.4	0
81	877	30.5	0
81	877	30.6	0
81	877	30.7	0
81	877	30.8	0
81	877	30.9	0
81	877	31	0
81	877	31.1	0
81	877	31.2	0
81	877	31.3	0
81	877	31.4	0
81	877	31.5	0
81	877	31.6	0
81	877	31.7	0
81	877	31.8	0
81	877	31.9	0
81	877	32	0
81	877	32.1	0
81	877	32.2	0
81	877	32.3	0
81	877	32.4	0
81	877	32.5	0
81	877	32.6	0
81	877	32.7	0
81	877	32.8	0
81	877	32.9	0
81	877	33	0
81	877	33.1	0
81	877	33.2	0
81	877	33.3	0
81	877	33.4	0
81	877	33.5	0
81	877	33.6	0
81	877	33.7	0
81	877	33.8	0
81	877	33.9	0
81	877	34	0
81	877	34.1	0
81	877	34.2	0
81	877	34.3	0
81	877	34.4	0
81	877	34.5	0
81	877	34.6	0
81	877	34.7	0
81	877	34.8	0
81	877	34.9	0
81	877	35	0
81	877	35.1	0
81	877	35.2	0
81	877	35.3	0
81	877	35.4	0
81	877	35.5	0
81	877	35.6	0
81	877	35.7	0
81	877	35.8	0
81	877	35.9	0
81	877	36	0
81	877	36.1	0
81	877	36.2	0
81	877	36.3	0
81	877	36.4	0
81	877	36.5	0
81	877	36.6	0
81	877	36.7	0
81	877	36.8	0
81	877	36.9	0
81	877	37	0
81	877	37.1	0
81	877	37.2	0
81	877	37.3	0
81	877	37.4	0
81	877	37.5	0
81	877	37.6	0
81	877	37.7	0
81	877	37.8	0
81	877	37.9	0
81	877	38	0
81	877	38.1	0
81	877	38.2	0
81	877	38.3	0
81	877	38.4	0
81	877	38.5	0
81	877	38.6	0
81	877	38.7	0
81	877	38.8	0
81	877	38.9	0
81	877	39	0
81	877	39.1	0
81	877	39.2	0
81	877	39.3	0
81	877	39.4	0
81	877	39.5	0
81	877	39.6	0
81	877	39.7	0
81	877	39.8	0
81	877	39.9	0
81	877	40	0
81	877	40.1	0
81	877	40.2	0
81	877	40.3	0
81	877	40.4	0
81	877	40.5	0
81	877	40.6	0
81	877	40.7	0
81	877	40.8	0
81	877	40.9	0
81	877	41	0
81	877	41.1	0
81	877	41.2	0
81	877	41.3	0
81	877	41.4	0
81	877	41.5	0
81	877	41.6	0
81	877	41.7	0
81	877	41.8	0
81	877	41.9	0
81	877	42	0
81	877	42.1	0
81	877	42.2	0
81	877	42.3	0
81	877	42.4	0
81	877	42.5	0
81	877	42.6	0
81	877	42.7	0
81	877	42.8	0
81	877	42.9	0
81	877	43	0
81	877	43.1	0
81	877	43.2	0
81	877	43.3	0
81	877	43.4	0
81	877	43.5	0
81	877	43.6	0
81	877	43.7	0
81	877	43.8	0
81	877	43.9	0
81	877	44	0
81	877	44.1	0
81	877	44.2	0
81	877	44.3	0
81	877	44.4	0
81	877	44.5	0
81	877	44.6	0
81	877	44.7	0
81	877	44.8	0
81	877	44.9	0
81	877	45	0
81	877	45.1	0
81	877	45.2	0
81	877	45.3	0
81	877	45.4	0
81	877	45.5	0
81	877	45.6	0
81	877	45.7	0
81	877	45.8	0
81	877	45.9	0
81	877	46	0
81	877	46.1	0
81	877	46.2	0
81	877	46.3	0
81	877	46.4	0
81	877	46.5	0
81	877	46.6	0
81	877	46.7	0
81	877	46.8	0
81	877	46.9	0
81	877	47	0
81	877	47.1	0
81	877	47.2	0
81	877	47.3	0
81	877	47.4	0
81	877	47.5	0
81	877	47.6	0
81	877	47.7	0
81	877	47.8	0
81	877	47.9	0
81	877	48	0
81	877	48.1	0
81	877	48.2	0
81	877	48.3	0
81	877	48.4	0
81	877	48.5	0
81	877	48.6	0
81	877	48.7	0
81	877	48.8	0
81	877	48.9	0
81	877	49	0
81	877	49.1	0
81	877	49.2	0
81	877	49.3	0
81	877	49.4	0
81	877	49.5	0
81	877	49.6	0
81	877	49.7	0
81	877	49.8	0
81	877	49.9	0
81	877	50	0
81	877	50.1	0
81	877	50.2	0
81	877	50.3	0
81	877	50.4	0
81	877	50.5	0
81	877	50.6	0
81	877	50.7	0
81	877	50.8	0
81	877	50.9	0
81	877	51	0
81	877	51.1	0
81	877	51.2	0
81	877	51.3	0
81	877	51.4	0
81	877	51.5	0
81	877	51.6	0
81	877	51.7	0
81	877	51.8	0
81	877	51.9	0
81	877	52	0
81	877	52.1	0
81	877	52.2	0
81	877	52.3	0
81	877	52.4	0
81	877	52.5	0
81	877	52.6	0
81	877	52.7	0
81	877	52.8	0
81	877	52.9	0
81	877	53	0
81	877	53.1	0
81	877	53.2	0
81	877	53.3	0
81	877	53.4	0
81	877	53.5	0
81	877	53.6	0
81	877	53.7	0
81	877	53.8	0
81	877	53.9	0
81	877	54	0
81	877	54.1	0
81	877	54.2	0
81	877	54.3	0
81	877	54.4	0
81	877	54.5	0
81	877	54.6	0
81	877	54.7	0
81	877	54.8	0
81	877	54.9	0
81	877	55	0
81	877	55.1	0
81	877	55.2	0
81	877	55.3	0
81	877	55.4	0
81	877	55.5	0
81	877	55.6	0
81	877	55.7	0
81	877	55.8	0
81	877	55.9	0
81	877	56	0
81	877	56.1	0
81	877	56.2	0
81	877	56.3	0
81	877	56.4	0
81	877	56.5	0
81	877	56.6	0
81	877	56.7	0
81	877	56.8	0
81	877	56.9	0
81	877	57	0
81	877	57.1	0
81	877	57.2	0
81	877	57.3	0
81	877	57.4	0
81	877	57.5	0
81	877	57.6	0
81	877	57.7	0
81	877	57.8	0
81	877	57.9	0
81	877	58	0
81	877	58.1	0
81	877	58.2	0
81	877	58.3	0
81	877	58.4	0
81	877	58.5	0
81	877	58.6	0
81	877	58.7	0
81	877	58.8	0
81	877	58.9	0
81	877	59	0
81	877	59.1	0
81	877	59.2	0
81	877	59.3	0
81	877	59.4	0
81	877	59.5	0
81	877	59.6	0
81	877	59.7	0
81	877	59.8	0
81	877	59.9	0
81	877	60	0
82	309	25.000152362056	5.000152362056
82	392	30.000152058387	10.000152058387
82	416	30.000152362056	10.000152362056
82	484	30.000650268881	10.000650268881
82	536	30.000913133093	10.000913133093
82	564	30.001149293791	10.001149293791
83	309	25.000152362056	100
84	310	25.000152362056	108
85	313	25.000152516201	158
85	400	30.000152135253	158
85	452	30.000375163634	158
85	526	30.000913132904	158
85	566	30.001149316725	158
86	313	25.000152516201	158
86	400	30.000152135253	158
86	452	30.000375163634	158
86	526	30.000913132904	158
86	566	30.001149316725	158
87	313	25.000152516201	158
87	400	30.000152135253	158
87	452	30.000375163634	158
87	526	30.000913132904	158
87	566	30.001149316725	158
88	313	25.000152516201	158
88	400	30.000152135253	158
88	452	30.000375163634	158
88	526	30.000913132904	158
88	566	30.001149316725	158
89	313	25.000152516201	130
89	400	30.000152135253	130
89	452	30.000375163634	130
89	526	30.000913132904	130
89	566	30.001149316725	130
90	315	25.000152516201	128
90	402	30.000152135253	128
90	431	30.000152516201	128
90	454	30.000375163634	128
90	528	30.000913132904	128
90	568	30.001149316725	128
91	316	25.000152516201	108
91	403	30.000152135253	108
91	433	30.000152516201	108
91	455	30.000375163634	108
91	529	30.000913132904	108
91	569	30.001149316725	108
92	316	25.000152516201	1
92	403	30.000152135253	2
92	433	30.000152516201	3
92	455	30.000375163634	4
92	529	30.000913132904	5
92	569	30.001149316725	6
93	317	25.000152516201	100
93	404	30.000152135253	100
93	434	30.000152516201	100
93	456	30.000375163634	100
93	530	30.000913132904	100
93	570	30.001149316725	100
94	317	0.1	0
94	317	0.2	0
94	317	0.3	0
94	317	0.4	0
94	317	0.5	0
94	317	0.6	0
94	317	0.7	0
94	317	0.8	0
94	317	0.9	0
94	317	1	0
94	317	1.1	0
94	317	1.2	0
94	317	1.3	0
94	317	1.4	0
94	317	1.5	0
94	317	1.6	0
94	317	1.7	0
94	317	1.8	0
94	317	1.9	0
94	317	2	0
94	317	2.1	0
94	317	2.2	0
94	317	2.3	0
94	317	2.4	0
94	317	2.5	0
94	317	2.6	0
94	317	2.7	0
94	317	2.8	0
94	317	2.9	0
94	317	3	0
94	317	3.1	0
94	317	3.2	0
94	317	3.3	0
94	317	3.4	0
94	317	3.5	0
94	317	3.6	0
94	317	3.7	0
94	317	3.8	0
94	317	3.9	0
94	317	4	0
94	317	4.1	0
94	317	4.2	0
94	317	4.3	0
94	317	4.4	0
94	317	4.5	0
94	317	4.6	0
94	317	4.7	0
94	317	4.8	0
94	317	4.9	0
94	317	5	0
94	317	5.1	0
94	317	5.2	0
94	317	5.3	0
94	317	5.4	0
94	317	5.5	0
94	317	5.6	0
94	317	5.7	0
94	317	5.8	0
94	317	5.9	0
94	317	6	0
94	317	6.1	0
94	317	6.2	0
94	317	6.3	0
94	317	6.4	0
94	317	6.5	0
94	317	6.6	0
94	317	6.7	0
94	317	6.8	0
94	317	6.9	0
94	317	7	0
94	317	7.1	0
94	317	7.2	0
94	317	7.3	0
94	317	7.4	0
94	317	7.5	0
94	317	7.6	0
94	317	7.7	0
94	317	7.8	0
94	317	7.9	0
94	317	8	0
94	317	8.1	0
94	317	8.2	0
94	317	8.3	0
94	317	8.4	0
94	317	8.5	0
94	317	8.6	0
94	317	8.7	0
94	317	8.8	0
94	317	8.9	0
94	317	9	0
94	317	9.1	0
94	317	9.2	0
94	317	9.3	0
94	317	9.4	0
94	317	9.5	0
94	317	9.6	0
94	317	9.7	0
94	317	9.8	0
94	317	9.9	0
94	317	10	0
94	317	10.1	0
94	317	10.2	0
94	317	10.3	0
94	317	10.4	0
94	317	10.5	0
94	317	10.6	0
94	317	10.7	0
94	317	10.8	0
94	317	10.9	0
94	317	11	0
94	317	11.1	0
94	317	11.2	0
94	317	11.3	0
94	317	11.4	0
94	317	11.5	0
94	317	11.6	0
94	317	11.7	0
94	317	11.8	0
94	317	11.9	0
94	317	12	0
94	317	12.1	0
94	317	12.2	0
94	317	12.3	0
94	317	12.4	0
94	317	12.5	0
94	317	12.6	0
94	317	12.7	0
94	317	12.8	0
94	317	12.9	0
94	317	13	0
94	317	13.1	0
94	317	13.2	0
94	317	13.3	0
94	317	13.4	0
94	317	13.5	0
94	317	13.6	0
94	317	13.7	0
94	317	13.8	0
94	317	13.9	0
94	317	14	0
94	317	14.1	0
94	317	14.2	0
94	317	14.3	0
94	317	14.4	0
94	317	14.5	0
94	317	14.6	0
94	317	14.7	0
94	317	14.8	0
94	317	14.9	0
94	317	15	0
94	317	15.1	0
94	317	15.2	0
94	317	15.3	0
94	317	15.4	0
94	317	15.5	0
94	317	15.6	0
94	317	15.7	0
94	317	15.8	0
94	317	15.9	0
94	317	16	0
94	317	16.1	0
94	317	16.2	0
94	317	16.3	0
94	317	16.4	0
94	317	16.5	0
94	317	16.6	0
94	317	16.7	0
94	317	16.8	0
94	317	16.9	0
94	317	17	0
94	317	17.1	0
94	317	17.2	0
94	317	17.3	0
94	317	17.4	0
94	317	17.5	0
94	317	17.6	0
94	317	17.7	0
94	317	17.8	0
94	317	17.9	0
94	317	18	0
94	317	18.1	0
94	317	18.2	0
94	317	18.3	0
94	317	18.4	0
94	317	18.5	0
94	317	18.6	0
94	317	18.7	0
94	317	18.8	0
94	317	18.9	0
94	317	19	0
94	317	19.1	0
94	317	19.2	0
94	317	19.3	0
94	317	19.4	0
94	317	19.5	0
94	317	19.6	0
94	317	19.7	0
94	317	19.8	0
94	317	19.9	0
94	317	20	0
94	317	20.1	0
94	317	20.2	0
94	317	20.3	0
94	317	20.4	0
94	317	20.5	0
94	317	20.6	0
94	317	20.7	0
94	317	20.8	0
94	317	20.9	0
94	317	21	0
94	317	21.1	0
94	317	21.2	0
94	317	21.3	0
94	317	21.4	0
94	317	21.5	0
94	317	21.6	0
94	317	21.7	0
94	317	21.8	0
94	317	21.9	0
94	317	22	0
94	317	22.1	0
94	317	22.2	0
94	317	22.3	0
94	317	22.4	0
94	317	22.5	0
94	317	22.6	0
94	317	22.7	0
94	317	22.8	0
94	317	22.9	0
94	317	23	0
94	317	23.1	0
94	317	23.2	0
94	317	23.3	0
94	317	23.4	0
94	317	23.5	0
94	317	23.6	0
94	317	23.7	0
94	317	23.8	0
94	317	23.9	0
94	317	24	0
94	317	24.1	0
94	317	24.2	0
94	317	24.3	0
94	317	24.4	0
94	317	24.5	0
94	317	24.6	0
94	317	24.7	0
94	317	24.8	0
94	317	24.9	0
94	317	25	0
94	404	25.1	8000
94	404	25.2	0
94	404	25.3	0
94	404	25.4	0
94	404	25.5	0
94	404	25.6	0
94	404	25.7	0
94	404	25.8	0
94	404	25.9	0
94	404	26	0
94	404	26.1	0
94	404	26.2	0
94	404	26.3	0
94	404	26.4	0
94	404	26.5	0
94	404	26.6	0
94	404	26.7	0
94	404	26.8	0
94	404	26.9	0
94	404	27	0
94	404	27.1	0
94	404	27.2	0
94	404	27.3	0
94	404	27.4	0
94	404	27.5	0
94	404	27.6	0
94	404	27.7	0
94	404	27.8	0
94	404	27.9	0
94	404	28	0
94	404	28.1	0
94	404	28.2	0
94	404	28.3	0
94	404	28.4	0
94	404	28.5	0
94	404	28.6	0
94	404	28.7	0
94	404	28.8	0
94	404	28.9	0
94	404	29	0
94	404	29.1	0
94	404	29.2	0
94	404	29.3	0
94	404	29.4	0
94	404	29.5	0
94	404	29.6	0
94	404	29.7	0
94	404	29.8	0
94	404	29.9	0
94	404	30	0
94	877	30.1	40000
94	877	30.2	0
94	877	30.3	0
94	877	30.4	0
94	877	30.5	0
94	877	30.6	0
94	877	30.7	0
94	877	30.8	0
94	877	30.9	0
94	877	31	0
94	877	31.1	0
94	877	31.2	0
94	877	31.3	0
94	877	31.4	0
94	877	31.5	0
94	877	31.6	0
94	877	31.7	0
94	877	31.8	0
94	877	31.9	0
94	877	32	0
94	877	32.1	0
94	877	32.2	0
94	877	32.3	0
94	877	32.4	0
94	877	32.5	0
94	877	32.6	0
94	877	32.7	0
94	877	32.8	0
94	877	32.9	0
94	877	33	0
94	877	33.1	0
94	877	33.2	0
94	877	33.3	0
94	877	33.4	0
94	877	33.5	0
94	877	33.6	0
94	877	33.7	0
94	877	33.8	0
94	877	33.9	0
94	877	34	0
94	877	34.1	0
94	877	34.2	0
94	877	34.3	0
94	877	34.4	0
94	877	34.5	0
94	877	34.6	0
94	877	34.7	0
94	877	34.8	0
94	877	34.9	0
94	877	35	0
94	877	35.1	0
94	877	35.2	0
94	877	35.3	0
94	877	35.4	0
94	877	35.5	0
94	877	35.6	0
94	877	35.7	0
94	877	35.8	0
94	877	35.9	0
94	877	36	0
94	877	36.1	0
94	877	36.2	0
94	877	36.3	0
94	877	36.4	0
94	877	36.5	0
94	877	36.6	0
94	877	36.7	0
94	877	36.8	0
94	877	36.9	0
94	877	37	0
94	877	37.1	0
94	877	37.2	0
94	877	37.3	0
94	877	37.4	0
94	877	37.5	0
94	877	37.6	0
94	877	37.7	0
94	877	37.8	0
94	877	37.9	0
94	877	38	0
94	877	38.1	0
94	877	38.2	0
94	877	38.3	0
94	877	38.4	0
94	877	38.5	0
94	877	38.6	0
94	877	38.7	0
94	877	38.8	0
94	877	38.9	0
94	877	39	0
94	877	39.1	0
94	877	39.2	0
94	877	39.3	0
94	877	39.4	0
94	877	39.5	0
94	877	39.6	0
94	877	39.7	0
94	877	39.8	0
94	877	39.9	0
94	877	40	0
94	877	40.1	0
94	877	40.2	0
94	877	40.3	0
94	877	40.4	0
94	877	40.5	0
94	877	40.6	0
94	877	40.7	0
94	877	40.8	0
94	877	40.9	0
94	877	41	0
94	877	41.1	0
94	877	41.2	0
94	877	41.3	0
94	877	41.4	0
94	877	41.5	0
94	877	41.6	0
94	877	41.7	0
94	877	41.8	0
94	877	41.9	0
94	877	42	0
94	877	42.1	0
94	877	42.2	0
94	877	42.3	0
94	877	42.4	0
94	877	42.5	0
94	877	42.6	0
94	877	42.7	0
94	877	42.8	0
94	877	42.9	0
94	877	43	0
94	877	43.1	0
94	877	43.2	0
94	877	43.3	0
94	877	43.4	0
94	877	43.5	0
94	877	43.6	0
94	877	43.7	0
94	877	43.8	0
94	877	43.9	0
94	877	44	0
94	877	44.1	0
94	877	44.2	0
94	877	44.3	0
94	877	44.4	0
94	877	44.5	0
94	877	44.6	0
94	877	44.7	0
94	877	44.8	0
94	877	44.9	0
94	877	45	0
94	877	45.1	0
94	877	45.2	0
94	877	45.3	0
94	877	45.4	0
94	877	45.5	0
94	877	45.6	0
94	877	45.7	0
94	877	45.8	0
94	877	45.9	0
94	877	46	0
94	877	46.1	0
94	877	46.2	0
94	877	46.3	0
94	877	46.4	0
94	877	46.5	0
94	877	46.6	0
94	877	46.7	0
94	877	46.8	0
94	877	46.9	0
94	877	47	0
94	877	47.1	0
94	877	47.2	0
94	877	47.3	0
94	877	47.4	0
94	877	47.5	0
94	877	47.6	0
94	877	47.7	0
94	877	47.8	0
94	877	47.9	0
94	877	48	0
94	877	48.1	0
94	877	48.2	0
94	877	48.3	0
94	877	48.4	0
94	877	48.5	0
94	877	48.6	0
94	877	48.7	0
94	877	48.8	0
94	877	48.9	0
94	877	49	0
94	877	49.1	0
94	877	49.2	0
94	877	49.3	0
94	877	49.4	0
94	877	49.5	0
94	877	49.6	0
94	877	49.7	0
94	877	49.8	0
94	877	49.9	0
94	877	50	0
94	877	50.1	0
94	877	50.2	0
94	877	50.3	0
94	877	50.4	0
94	877	50.5	0
94	877	50.6	0
94	877	50.7	0
94	877	50.8	0
94	877	50.9	0
94	877	51	0
94	877	51.1	0
94	877	51.2	0
94	877	51.3	0
94	877	51.4	0
94	877	51.5	0
94	877	51.6	0
94	877	51.7	0
94	877	51.8	0
94	877	51.9	0
94	877	52	0
94	877	52.1	0
94	877	52.2	0
94	877	52.3	0
94	877	52.4	0
94	877	52.5	0
94	877	52.6	0
94	877	52.7	0
94	877	52.8	0
94	877	52.9	0
94	877	53	0
94	877	53.1	0
94	877	53.2	0
94	877	53.3	0
94	877	53.4	0
94	877	53.5	0
94	877	53.6	0
94	877	53.7	0
94	877	53.8	0
94	877	53.9	0
94	877	54	0
94	877	54.1	0
94	877	54.2	0
94	877	54.3	0
94	877	54.4	0
94	877	54.5	0
94	877	54.6	0
94	877	54.7	0
94	877	54.8	0
94	877	54.9	0
94	877	55	0
94	877	55.1	0
94	877	55.2	0
94	877	55.3	0
94	877	55.4	0
94	877	55.5	0
94	877	55.6	0
94	877	55.7	0
94	877	55.8	0
94	877	55.9	0
94	877	56	0
94	877	56.1	0
94	877	56.2	0
94	877	56.3	0
94	877	56.4	0
94	877	56.5	0
94	877	56.6	0
94	877	56.7	0
94	877	56.8	0
94	877	56.9	0
94	877	57	0
94	877	57.1	0
94	877	57.2	0
94	877	57.3	0
94	877	57.4	0
94	877	57.5	0
94	877	57.6	0
94	877	57.7	0
94	877	57.8	0
94	877	57.9	0
94	877	58	0
94	877	58.1	0
94	877	58.2	0
94	877	58.3	0
94	877	58.4	0
94	877	58.5	0
94	877	58.6	0
94	877	58.7	0
94	877	58.8	0
94	877	58.9	0
94	877	59	0
94	877	59.1	0
94	877	59.2	0
94	877	59.3	0
94	877	59.4	0
94	877	59.5	0
94	877	59.6	0
94	877	59.7	0
94	877	59.8	0
94	877	59.9	0
94	877	60	0
95	317	25.000152516201	5.000152516201
95	404	30.000152135253	10.000152135253
95	434	30.000152516201	10.000152516201
95	456	30.000375163634	10.000375163634
95	530	30.000913132904	10.000913132904
95	570	30.001149316725	10.001149316725
96	317	25.000152516201	100
97	318	25.000152516201	108
98	393	30.000152110886	128
99	393	30.000152110886	128
100	396	30.000152110886	130
101	396	30.000152110886	158
102	396	30.000152110886	1
102	538	30.000996771175	0
103	396	30.000152110886	12
104	405	30.000152228118	128
105	405	30.000152228118	128
106	408	30.000152228118	130
107	408	30.000152228118	158
108	408	30.000152228118	1
108	504	30.000760648269	0
109	408	30.000152228118	10
110	411	30.000152362056	128
111	411	30.000152362056	128
112	414	30.000152362056	130
113	414	30.000152362056	158
114	414	30.000152362056	1
114	436	30.000223058387	0
115	414	30.000152362056	1
116	414	30.000152362056	1
116	435	30.000223058387	0
117	417	30.000152432316	1
117	441	30.000223543211	0
117	457	30.000375543211	1
117	475	30.000498648269	0
117	491	30.000650648269	1
117	503	30.000760648269	0
118	423	30.000152465443	1
118	442	30.000223581003	0
118	463	30.000375581003	1
118	476	30.000498709184	0
118	497	30.000650709184	1
118	507	30.000760771175	0
118	513	30.000912771175	1
118	537	30.000996771175	0
119	429	30.000152516201	128
120	429	30.000152516201	128
121	432	30.000152516201	130
122	432	30.000152516201	158
123	432	30.000152516201	1
123	470	30.000498163634	0
124	432	30.000152516201	6
125	432	30.000152516201	1
125	440	30.000223163634	0
125	451	30.000375163634	1
125	469	30.000498163634	0
126	436	30.000223058387	158
127	436	30.000223058387	7.0696331e-005
128	436	30.000223058387	1
128	443	30.000375058387	0
129	436	30.000223058387	12000000
130	436	30.000223058387	158
131	436	30.000223058387	1
131	443	30.000375058387	0
132	437	30.000223058387	1
132	438	30.000223058387	2
132	443	30.000375058387	1
132	444	30.000375058387	0
133	443	30.000375058387	158
134	443	30.000375058387	158
135	443	30.000375058387	158
136	443	30.000375058387	0.000152
137	446	30.000375116774	158
137	486	30.000650298887	158
137	520	30.000913080585	158
137	554	30.001149236618	158
138	446	30.000375116774	158
138	486	30.000650298887	158
138	520	30.000913080585	158
138	554	30.001149236618	158
139	446	30.000375116774	158
139	486	30.000650298887	158
139	520	30.000913080585	158
139	554	30.001149236618	158
140	446	30.000375116774	158
140	486	30.000650298887	158
140	520	30.000913080585	158
140	554	30.001149236618	158
141	446	30.000375116774	130
141	486	30.000650298887	130
141	520	30.000913080585	130
141	554	30.001149236618	130
142	470	30.000498163634	158
143	470	30.000498163634	0.000345647433
144	470	30.000498163634	1
144	477	30.000650163634	0
145	470	30.000498163634	12000000
146	470	30.000498163634	158
147	470	30.000498163634	1
147	477	30.000650163634	0
148	471	30.000498163634	1
148	472	30.000498163634	2
148	477	30.000650163634	1
148	478	30.000650163634	0
149	477	30.000650163634	158
150	477	30.000650163634	158
151	477	30.000650163634	158
152	477	30.000650163634	0.000152
153	504	30.000760648269	158
154	504	30.000760648269	0.000608420151
155	504	30.000760648269	1
155	511	30.000912648269	0
156	504	30.000760648269	12000000
157	504	30.000760648269	158
158	504	30.000760648269	1
158	511	30.000912648269	0
159	505	30.000760648269	1
159	506	30.000760648269	2
159	511	30.000912648269	1
159	512	30.000912648269	0
160	511	30.000912648269	158
161	511	30.000912648269	158
162	511	30.000912648269	158
163	511	30.000912648269	0.000152
164	538	30.000996771175	158
165	538	30.000996771175	0.000844660289
166	538	30.000996771175	1
166	545	30.001148771175	0
167	538	30.000996771175	12000000
168	538	30.000996771175	158
169	538	30.000996771175	1
169	545	30.001148771175	0
170	539	30.000996771175	1
170	540	30.000996771175	2
170	545	30.001148771175	1
170	546	30.001148771175	0
171	545	30.001148771175	158
172	545	30.001148771175	158
173	545	30.001148771175	158
174	545	30.001148771175	0.000152

