version 2
run DoSAttack-0-20240429-22:43:13-18164
attr configname DoSAttack
attr datetime 20240429-22:43:13
attr experiment DoSAttack
attr inifile omnetpp.ini
attr iterationvars ""
attr iterationvarsf ""
attr measurement ""
attr network Scenario
attr processid 18164
attr repetition 0
attr replication #0
attr resultdir results
attr runnumber 0
attr seedset 0
param *.node[0].**.attacking true
param *.node[0].**.attackString "\"DoS\""
param *.node[0].**.DoSPackets 10
param *.node[0].**.impersonating true
param *.node[0].**.impersonatingIPFragOne 10
param *.node[0].**.impersonatingIPFragTwo 0
param *.node[0].**.impersonatingIPFragThree 0
param *.node[0].**.impersonatingIPFragFour 222
param *.node[*].numApps 1
param *.node[*].app[0].typename "\"vanetattackpackage.veins_inet.AttackTestApp\""
param *.node[*].app[0].interface "\"wlan0\""
param *.node[*].wlan[0].opMode "\"p\""
param *.node[*].wlan[0].radio.typename "\"Ieee80211DimensionalRadio\""
param *.node[*].wlan[0].radio.bandName "\"5.9 GHz\""
param *.node[*].wlan[0].radio.channelNumber 3
param *.node[*].wlan[0].radio.transmitter.power 20mW
param *.node[*].wlan[0].radio.bandwidth "10 MHz"
param *.node[*].wlan[*].radio.antenna.mobility.typename "\"AttachedMobility\""
param *.node[*].wlan[*].radio.antenna.mobility.mobilityModule "\"^.^.^.^.mobility\""
param *.node[*].wlan[*].radio.antenna.mobility.offsetX -2.5m
param *.node[*].wlan[*].radio.antenna.mobility.offsetZ 1.5m
param *.node[*].wlan[*].radio.antenna.mobility.constraintAreaMinX 0m
param *.node[*].wlan[*].radio.antenna.mobility.constraintAreaMaxX 0m
param *.node[*].wlan[*].radio.antenna.mobility.constraintAreaMinY 0m
param *.node[*].wlan[*].radio.antenna.mobility.constraintAreaMaxY 0m
param *.node[*].wlan[*].radio.antenna.mobility.constraintAreaMinZ 0m
param *.node[*].wlan[*].radio.antenna.mobility.constraintAreaMaxZ 0m
param *.node[*].ipv4.configurator.typename "\"HostAutoConfigurator\""
param *.node[*].ipv4.configurator.interfaces "\"wlan0\""
param *.node[*].ipv4.configurator.mcastGroups "\"224.0.0.1\""
param *.node[*].mobility.typename "\"VeinsInetMobility\""
param *.manager.updateInterval 0.1s
param *.manager.host "\"localhost\""
param *.manager.port 9999
param *.manager.autoShutdown true
param *.manager.launchConfig "xmldoc(\"motorway.launchd.xml\")"
param *.manager.moduleType "\"vanetattackpackage.veins_inet.VeinsInetAttackingCar\""

vector 0 Scenario.node[0].wlan[0].radio radioMode:vector ETV
attr interpolationmode sample-hold
attr source radioModeChanged
attr title "Radio mode, vector"
vector 1 Scenario.node[0].wlan[0].radio radioChannel:vector ETV
attr interpolationmode sample-hold
attr source radioChannelChanged
attr title "Radio channel, vector"
vector 2 Scenario.node[0].wlan[0].radio receptionState:vector ETV
attr interpolationmode sample-hold
attr source receptionStateChanged
attr title "Radio reception state, vector"
vector 3 Scenario.node[0].wlan[0].mac.dcf.recoveryProcedure contentionWindowChanged:vector ETV
attr interpolationmode sample-hold
attr title "contention window, vector"
vector 4 Scenario.node[1].wlan[0].radio radioMode:vector ETV
attr interpolationmode sample-hold
attr source radioModeChanged
attr title "Radio mode, vector"
vector 5 Scenario.node[1].wlan[0].radio radioChannel:vector ETV
attr interpolationmode sample-hold
attr source radioChannelChanged
attr title "Radio channel, vector"
vector 6 Scenario.node[1].wlan[0].radio receptionState:vector ETV
attr interpolationmode sample-hold
attr source receptionStateChanged
attr title "Radio reception state, vector"
vector 7 Scenario.node[1].wlan[0].mac.dcf.recoveryProcedure contentionWindowChanged:vector ETV
attr interpolationmode sample-hold
attr title "contention window, vector"
vector 8 Scenario.node[2].wlan[0].radio radioMode:vector ETV
attr interpolationmode sample-hold
attr source radioModeChanged
attr title "Radio mode, vector"
vector 9 Scenario.node[2].wlan[0].radio radioChannel:vector ETV
attr interpolationmode sample-hold
attr source radioChannelChanged
attr title "Radio channel, vector"
vector 10 Scenario.node[2].wlan[0].radio receptionState:vector ETV
attr interpolationmode sample-hold
attr source receptionStateChanged
attr title "Radio reception state, vector"
vector 11 Scenario.node[2].wlan[0].mac.dcf.recoveryProcedure contentionWindowChanged:vector ETV
attr interpolationmode sample-hold
attr title "contention window, vector"
vector 12 Scenario.node[3].wlan[0].radio radioMode:vector ETV
attr interpolationmode sample-hold
attr source radioModeChanged
attr title "Radio mode, vector"
vector 13 Scenario.node[3].wlan[0].radio radioChannel:vector ETV
attr interpolationmode sample-hold
attr source radioChannelChanged
attr title "Radio channel, vector"
vector 14 Scenario.node[3].wlan[0].radio receptionState:vector ETV
attr interpolationmode sample-hold
attr source receptionStateChanged
attr title "Radio reception state, vector"
vector 15 Scenario.node[3].wlan[0].mac.dcf.recoveryProcedure contentionWindowChanged:vector ETV
attr interpolationmode sample-hold
attr title "contention window, vector"
vector 16 Scenario.node[4].wlan[0].radio radioMode:vector ETV
attr interpolationmode sample-hold
attr source radioModeChanged
attr title "Radio mode, vector"
vector 17 Scenario.node[4].wlan[0].radio radioChannel:vector ETV
attr interpolationmode sample-hold
attr source radioChannelChanged
attr title "Radio channel, vector"
vector 18 Scenario.node[4].wlan[0].radio receptionState:vector ETV
attr interpolationmode sample-hold
attr source receptionStateChanged
attr title "Radio reception state, vector"
vector 19 Scenario.node[4].wlan[0].mac.dcf.recoveryProcedure contentionWindowChanged:vector ETV
attr interpolationmode sample-hold
attr title "contention window, vector"
vector 20 Scenario.node[0].app[0] packetSent:vector(packetBytes) ETV
attr interpolationmode none
attr source packetSent
attr title "packets sent, vector(packetBytes)"
vector 21 Scenario.node[0].udp packetSent:vector(packetBytes) ETV
attr interpolationmode none
attr source packetSent
attr title "packets sent, vector(packetBytes)"
vector 22 Scenario.node[0].ipv4.ip DoSPacketsSent:vector(packetBytes) ETV
attr interpolationmode none
attr source DoSPacketSent
attr title "packets sent using DoS, vector(packetBytes)"
vector 23 Scenario.node[0].lo[0].lo rcvdPkFromHl:vector(packetBytes) ETV
attr interpolationmode none
attr source packetReceivedFromUpper
attr title "packets received from higher layer, vector(packetBytes)"
vector 24 Scenario.node[0].lo[0].lo passedUpPk:vector(packetBytes) ETV
attr interpolationmode none
attr source packetSentToUpper
attr title "packets passed to higher layer, vector(packetBytes)"
vector 25 Scenario.node[0].ipv4.ip totalPacketsReceieved:vector(packetBytes) ETV
attr interpolationmode none
attr source messageReceived
attr title "packets received from network, vector(packetBytes)"
vector 26 Scenario.node[0].wlan[0].mac packetReceivedFromUpper:vector(packetBytes) ETV
attr interpolationmode none
attr title "packets received from upper layer, vector(packetBytes)"
vector 27 Scenario.node[0].wlan[0].mac.dcf.channelAccess.pendingQueue packetPushed:vector(packetBytes) ETV
attr interpolationmode none
attr title "packet pushed, vector(packetBytes)"
vector 28 Scenario.node[0].wlan[0].mac.dcf.channelAccess.pendingQueue queueLength:vector ETV
attr interpolationmode sample-hold
attr source "count(packetPushed) - count(packetPopped) - count(packetRemoved) - count(packetDropped)"
attr title "queue length, vector"
vector 29 Scenario.node[0].wlan[0].mac.dcf.channelAccess.contention backoffPeriodGenerated:vector ETV
attr interpolationmode none
attr title "backoff periods, vector"
vector 30 Scenario.node[0].wlan[0].mac.dcf.channelAccess.contention backoffActive:vector ETV
attr interpolationmode sample-hold
attr source count(backoffStarted)-count(backoffStopped)
attr title "backoff active, vector"
vector 31 Scenario.node[0].udp packetReceived:vector(packetBytes) ETV
attr interpolationmode none
attr source packetReceived
attr title "packets received, vector(packetBytes)"
vector 32 Scenario.node[0].udp passedUpPk:vector(count) ETV
attr interpolationmode none
attr source packetSentToUpper
attr title "packets passed up, vector(count)"
vector 33 Scenario.node[0].app[0] packetReceived:vector(packetBytes) ETV
attr interpolationmode none
attr source packetReceived
attr title "packets received, vector(packetBytes)"
vector 34 Scenario.node[0].app[0] throughput:vector ETV
attr source throughput(packetReceived)
attr title "throughput, vector"
attr unit bps
vector 35 Scenario.node[0].app[0] rcvdPkLifetime:vector ETV
attr interpolationmode none
attr source dataAge(packetReceived)
attr title "received packet lifetime, vector"
attr unit s
vector 36 Scenario.node[0].wlan[0].mac.dcf.channelAccess.pendingQueue packetPopped:vector(packetBytes) ETV
attr interpolationmode none
attr title "packet popped, vector(packetBytes)"
vector 37 Scenario.node[0].wlan[0].mac.dcf.channelAccess.pendingQueue queueingTime:vector ETV
attr interpolationmode none
attr source queueingTime(packetPopped)
attr title "queueing times, vector"
attr unit s
vector 38 Scenario.node[0].wlan[0].mac.dcf.channelAccess.inProgressFrames queueLength:vector ETV
attr interpolationmode sample-hold
attr source "count(packetEnqueued) - count(packetDequeued)"
attr title "queue length, vector"
vector 39 Scenario.node[0].wlan[0].mac.dcf datarateSelected:vector ETV
attr interpolationmode none
attr title "datarates selected, vector"
vector 40 Scenario.node[0].wlan[0].mac packetSentToLower:vector(packetBytes) ETV
attr interpolationmode none
attr title "packets sent to lower layer, vector(packetBytes)"
vector 41 Scenario.node[0].wlan[0].mac.dcf frameSequenceActive:vector ETV
attr interpolationmode sample-hold
attr source count(frameSequenceStarted)-count(frameSequenceFinished)
attr title "frame sequence active, vector"
vector 42 Scenario.node[0].wlan[0].radio transmissionState:vector ETV
attr interpolationmode sample-hold
attr source transmissionStateChanged
attr title "Radio transmission state, vector"
vector 43 Scenario.node[0].wlan[0].mac.dcf packetSentToPeer:vector(packetBytes) ETV
attr interpolationmode none
attr title "packets sent, vector(packetBytes)"
vector 44 Scenario.node[0].wlan[0].mac.dcf packetSentToPeerMulticast:vector(packetBytes) ETV
attr interpolationmode none
attr source ieee80211Multicast(packetSentToPeer)
attr title "packets sent: multicast, vector(packetBytes)"
vector 45 Scenario.node[0].wlan[0].mac.dcf packetSentToPeerWithoutRetry:vector(packetBytes) ETV
attr interpolationmode none
attr source ieee80211NotRetry(packetSentToPeer)
attr title "packets sent: without retry, vector(packetBytes)"
vector 46 Scenario.node[0].wlan[0].mac.dcf.channelAccess.inProgressFrames queueingTime:vector ETV
attr interpolationmode none
attr source queueingTime(packetDequeued)
attr title "queueing times, vector"
vector 47 Scenario.node[1].wlan[0].mac packetReceivedFromLower:vector(packetBytes) ETV
attr interpolationmode none
attr title "packets received from lower layer, vector(packetBytes)"
vector 48 Scenario.node[1].wlan[0].mac.dcf packetReceivedFromPeer:vector(packetBytes) ETV
attr interpolationmode none
attr title "packets received, vector(packetBytes)"
vector 49 Scenario.node[1].wlan[0].mac.dcf packetReceivedFromPeerMulticast:vector(packetBytes) ETV
attr interpolationmode none
attr source ieee80211Multicast(packetReceivedFromPeer)
attr title "packets received: multicast, vector(packetBytes)"
vector 50 Scenario.node[1].wlan[0].mac.dcf packetReceivedFromPeerWithoutRetry:vector(packetBytes) ETV
attr interpolationmode none
attr source ieee80211NotRetry(packetReceivedFromPeer)
attr title "packets received: without retry, vector(packetBytes)"
vector 51 Scenario.node[1].wlan[0].mac packetSentToUpper:vector(packetBytes) ETV
attr interpolationmode none
attr title "packets sent to upper layer, vector(packetBytes)"
vector 52 Scenario.node[1].ipv4.ip totalPacketsReceieved:vector(packetBytes) ETV
attr interpolationmode none
attr source messageReceived
attr title "packets received from network, vector(packetBytes)"
vector 53 Scenario.node[1].udp packetReceived:vector(packetBytes) ETV
attr interpolationmode none
attr source packetReceived
attr title "packets received, vector(packetBytes)"
vector 54 Scenario.node[1].udp passedUpPk:vector(count) ETV
attr interpolationmode none
attr source packetSentToUpper
attr title "packets passed up, vector(count)"
vector 55 Scenario.node[1].app[0] packetReceived:vector(packetBytes) ETV
attr interpolationmode none
attr source packetReceived
attr title "packets received, vector(packetBytes)"
vector 56 Scenario.node[1].app[0] throughput:vector ETV
attr source throughput(packetReceived)
attr title "throughput, vector"
attr unit bps
vector 57 Scenario.node[1].app[0] rcvdPkLifetime:vector ETV
attr interpolationmode none
attr source dataAge(packetReceived)
attr title "received packet lifetime, vector"
attr unit s
vector 58 Scenario.node[1].app[0] packetSent:vector(packetBytes) ETV
attr interpolationmode none
attr source packetSent
attr title "packets sent, vector(packetBytes)"
vector 59 Scenario.node[1].udp packetSent:vector(packetBytes) ETV
attr interpolationmode none
attr source packetSent
attr title "packets sent, vector(packetBytes)"
vector 60 Scenario.node[1].lo[0].lo rcvdPkFromHl:vector(packetBytes) ETV
attr interpolationmode none
attr source packetReceivedFromUpper
attr title "packets received from higher layer, vector(packetBytes)"
vector 61 Scenario.node[1].lo[0].lo passedUpPk:vector(packetBytes) ETV
attr interpolationmode none
attr source packetSentToUpper
attr title "packets passed to higher layer, vector(packetBytes)"
vector 62 Scenario.node[1].wlan[0].mac packetReceivedFromUpper:vector(packetBytes) ETV
attr interpolationmode none
attr title "packets received from upper layer, vector(packetBytes)"
vector 63 Scenario.node[1].wlan[0].mac.dcf.channelAccess.pendingQueue packetPushed:vector(packetBytes) ETV
attr interpolationmode none
attr title "packet pushed, vector(packetBytes)"
vector 64 Scenario.node[1].wlan[0].mac.dcf.channelAccess.pendingQueue queueLength:vector ETV
attr interpolationmode sample-hold
attr source "count(packetPushed) - count(packetPopped) - count(packetRemoved) - count(packetDropped)"
attr title "queue length, vector"
vector 65 Scenario.node[1].wlan[0].mac.dcf.channelAccess.contention backoffPeriodGenerated:vector ETV
attr interpolationmode none
attr title "backoff periods, vector"
vector 66 Scenario.node[1].wlan[0].mac.dcf.channelAccess.contention backoffActive:vector ETV
attr interpolationmode sample-hold
attr source count(backoffStarted)-count(backoffStopped)
attr title "backoff active, vector"
vector 67 Scenario.node[2].wlan[0].mac packetReceivedFromLower:vector(packetBytes) ETV
attr interpolationmode none
attr title "packets received from lower layer, vector(packetBytes)"
vector 68 Scenario.node[2].wlan[0].mac.dcf packetReceivedFromPeer:vector(packetBytes) ETV
attr interpolationmode none
attr title "packets received, vector(packetBytes)"
vector 69 Scenario.node[2].wlan[0].mac.dcf packetReceivedFromPeerMulticast:vector(packetBytes) ETV
attr interpolationmode none
attr source ieee80211Multicast(packetReceivedFromPeer)
attr title "packets received: multicast, vector(packetBytes)"
vector 70 Scenario.node[2].wlan[0].mac.dcf packetReceivedFromPeerWithoutRetry:vector(packetBytes) ETV
attr interpolationmode none
attr source ieee80211NotRetry(packetReceivedFromPeer)
attr title "packets received: without retry, vector(packetBytes)"
vector 71 Scenario.node[2].wlan[0].mac packetSentToUpper:vector(packetBytes) ETV
attr interpolationmode none
attr title "packets sent to upper layer, vector(packetBytes)"
vector 72 Scenario.node[2].ipv4.ip totalPacketsReceieved:vector(packetBytes) ETV
attr interpolationmode none
attr source messageReceived
attr title "packets received from network, vector(packetBytes)"
vector 73 Scenario.node[2].udp packetReceived:vector(packetBytes) ETV
attr interpolationmode none
attr source packetReceived
attr title "packets received, vector(packetBytes)"
vector 74 Scenario.node[2].udp passedUpPk:vector(count) ETV
attr interpolationmode none
attr source packetSentToUpper
attr title "packets passed up, vector(count)"
vector 75 Scenario.node[2].app[0] packetReceived:vector(packetBytes) ETV
attr interpolationmode none
attr source packetReceived
attr title "packets received, vector(packetBytes)"
vector 76 Scenario.node[2].app[0] throughput:vector ETV
attr source throughput(packetReceived)
attr title "throughput, vector"
attr unit bps
vector 77 Scenario.node[2].app[0] rcvdPkLifetime:vector ETV
attr interpolationmode none
attr source dataAge(packetReceived)
attr title "received packet lifetime, vector"
attr unit s
vector 78 Scenario.node[2].app[0] packetSent:vector(packetBytes) ETV
attr interpolationmode none
attr source packetSent
attr title "packets sent, vector(packetBytes)"
vector 79 Scenario.node[2].udp packetSent:vector(packetBytes) ETV
attr interpolationmode none
attr source packetSent
attr title "packets sent, vector(packetBytes)"
vector 80 Scenario.node[2].lo[0].lo rcvdPkFromHl:vector(packetBytes) ETV
attr interpolationmode none
attr source packetReceivedFromUpper
attr title "packets received from higher layer, vector(packetBytes)"
vector 81 Scenario.node[2].lo[0].lo passedUpPk:vector(packetBytes) ETV
attr interpolationmode none
attr source packetSentToUpper
attr title "packets passed to higher layer, vector(packetBytes)"
vector 82 Scenario.node[2].wlan[0].mac packetReceivedFromUpper:vector(packetBytes) ETV
attr interpolationmode none
attr title "packets received from upper layer, vector(packetBytes)"
vector 83 Scenario.node[2].wlan[0].mac.dcf.channelAccess.pendingQueue packetPushed:vector(packetBytes) ETV
attr interpolationmode none
attr title "packet pushed, vector(packetBytes)"
vector 84 Scenario.node[2].wlan[0].mac.dcf.channelAccess.pendingQueue queueLength:vector ETV
attr interpolationmode sample-hold
attr source "count(packetPushed) - count(packetPopped) - count(packetRemoved) - count(packetDropped)"
attr title "queue length, vector"
vector 85 Scenario.node[2].wlan[0].mac.dcf.channelAccess.contention backoffPeriodGenerated:vector ETV
attr interpolationmode none
attr title "backoff periods, vector"
vector 86 Scenario.node[2].wlan[0].mac.dcf.channelAccess.contention backoffActive:vector ETV
attr interpolationmode sample-hold
attr source count(backoffStarted)-count(backoffStopped)
attr title "backoff active, vector"
vector 87 Scenario.node[3].wlan[0].mac packetReceivedFromLower:vector(packetBytes) ETV
attr interpolationmode none
attr title "packets received from lower layer, vector(packetBytes)"
vector 88 Scenario.node[3].wlan[0].mac.dcf packetReceivedFromPeer:vector(packetBytes) ETV
attr interpolationmode none
attr title "packets received, vector(packetBytes)"
vector 89 Scenario.node[3].wlan[0].mac.dcf packetReceivedFromPeerMulticast:vector(packetBytes) ETV
attr interpolationmode none
attr source ieee80211Multicast(packetReceivedFromPeer)
attr title "packets received: multicast, vector(packetBytes)"
vector 90 Scenario.node[3].wlan[0].mac.dcf packetReceivedFromPeerWithoutRetry:vector(packetBytes) ETV
attr interpolationmode none
attr source ieee80211NotRetry(packetReceivedFromPeer)
attr title "packets received: without retry, vector(packetBytes)"
vector 91 Scenario.node[3].wlan[0].mac packetSentToUpper:vector(packetBytes) ETV
attr interpolationmode none
attr title "packets sent to upper layer, vector(packetBytes)"
vector 92 Scenario.node[3].ipv4.ip totalPacketsReceieved:vector(packetBytes) ETV
attr interpolationmode none
attr source messageReceived
attr title "packets received from network, vector(packetBytes)"
vector 93 Scenario.node[3].udp packetReceived:vector(packetBytes) ETV
attr interpolationmode none
attr source packetReceived
attr title "packets received, vector(packetBytes)"
vector 94 Scenario.node[3].udp passedUpPk:vector(count) ETV
attr interpolationmode none
attr source packetSentToUpper
attr title "packets passed up, vector(count)"
vector 95 Scenario.node[3].app[0] packetReceived:vector(packetBytes) ETV
attr interpolationmode none
attr source packetReceived
attr title "packets received, vector(packetBytes)"
vector 96 Scenario.node[3].app[0] throughput:vector ETV
attr source throughput(packetReceived)
attr title "throughput, vector"
attr unit bps
vector 97 Scenario.node[3].app[0] rcvdPkLifetime:vector ETV
attr interpolationmode none
attr source dataAge(packetReceived)
attr title "received packet lifetime, vector"
attr unit s
vector 98 Scenario.node[3].app[0] packetSent:vector(packetBytes) ETV
attr interpolationmode none
attr source packetSent
attr title "packets sent, vector(packetBytes)"
vector 99 Scenario.node[3].udp packetSent:vector(packetBytes) ETV
attr interpolationmode none
attr source packetSent
attr title "packets sent, vector(packetBytes)"
vector 100 Scenario.node[3].lo[0].lo rcvdPkFromHl:vector(packetBytes) ETV
attr interpolationmode none
attr source packetReceivedFromUpper
attr title "packets received from higher layer, vector(packetBytes)"
vector 101 Scenario.node[3].lo[0].lo passedUpPk:vector(packetBytes) ETV
attr interpolationmode none
attr source packetSentToUpper
attr title "packets passed to higher layer, vector(packetBytes)"
vector 102 Scenario.node[3].wlan[0].mac packetReceivedFromUpper:vector(packetBytes) ETV
attr interpolationmode none
attr title "packets received from upper layer, vector(packetBytes)"
vector 103 Scenario.node[3].wlan[0].mac.dcf.channelAccess.pendingQueue packetPushed:vector(packetBytes) ETV
attr interpolationmode none
attr title "packet pushed, vector(packetBytes)"
vector 104 Scenario.node[3].wlan[0].mac.dcf.channelAccess.pendingQueue queueLength:vector ETV
attr interpolationmode sample-hold
attr source "count(packetPushed) - count(packetPopped) - count(packetRemoved) - count(packetDropped)"
attr title "queue length, vector"
vector 105 Scenario.node[3].wlan[0].mac.dcf.channelAccess.contention backoffPeriodGenerated:vector ETV
attr interpolationmode none
attr title "backoff periods, vector"
vector 106 Scenario.node[3].wlan[0].mac.dcf.channelAccess.contention backoffActive:vector ETV
attr interpolationmode sample-hold
attr source count(backoffStarted)-count(backoffStopped)
attr title "backoff active, vector"
vector 107 Scenario.node[4].wlan[0].mac packetReceivedFromLower:vector(packetBytes) ETV
attr interpolationmode none
attr title "packets received from lower layer, vector(packetBytes)"
vector 108 Scenario.node[4].wlan[0].mac.dcf packetReceivedFromPeer:vector(packetBytes) ETV
attr interpolationmode none
attr title "packets received, vector(packetBytes)"
vector 109 Scenario.node[4].wlan[0].mac.dcf packetReceivedFromPeerMulticast:vector(packetBytes) ETV
attr interpolationmode none
attr source ieee80211Multicast(packetReceivedFromPeer)
attr title "packets received: multicast, vector(packetBytes)"
vector 110 Scenario.node[4].wlan[0].mac.dcf packetReceivedFromPeerWithoutRetry:vector(packetBytes) ETV
attr interpolationmode none
attr source ieee80211NotRetry(packetReceivedFromPeer)
attr title "packets received: without retry, vector(packetBytes)"
vector 111 Scenario.node[4].wlan[0].mac packetSentToUpper:vector(packetBytes) ETV
attr interpolationmode none
attr title "packets sent to upper layer, vector(packetBytes)"
vector 112 Scenario.node[4].ipv4.ip totalPacketsReceieved:vector(packetBytes) ETV
attr interpolationmode none
attr source messageReceived
attr title "packets received from network, vector(packetBytes)"
vector 113 Scenario.node[4].udp packetReceived:vector(packetBytes) ETV
attr interpolationmode none
attr source packetReceived
attr title "packets received, vector(packetBytes)"
vector 114 Scenario.node[4].udp passedUpPk:vector(count) ETV
attr interpolationmode none
attr source packetSentToUpper
attr title "packets passed up, vector(count)"
vector 115 Scenario.node[4].app[0] packetReceived:vector(packetBytes) ETV
attr interpolationmode none
attr source packetReceived
attr title "packets received, vector(packetBytes)"
vector 116 Scenario.node[4].app[0] throughput:vector ETV
attr source throughput(packetReceived)
attr title "throughput, vector"
attr unit bps
vector 117 Scenario.node[4].app[0] rcvdPkLifetime:vector ETV
attr interpolationmode none
attr source dataAge(packetReceived)
attr title "received packet lifetime, vector"
attr unit s
vector 118 Scenario.node[4].app[0] packetSent:vector(packetBytes) ETV
attr interpolationmode none
attr source packetSent
attr title "packets sent, vector(packetBytes)"
vector 119 Scenario.node[4].udp packetSent:vector(packetBytes) ETV
attr interpolationmode none
attr source packetSent
attr title "packets sent, vector(packetBytes)"
vector 120 Scenario.node[4].lo[0].lo rcvdPkFromHl:vector(packetBytes) ETV
attr interpolationmode none
attr source packetReceivedFromUpper
attr title "packets received from higher layer, vector(packetBytes)"
vector 121 Scenario.node[4].lo[0].lo passedUpPk:vector(packetBytes) ETV
attr interpolationmode none
attr source packetSentToUpper
attr title "packets passed to higher layer, vector(packetBytes)"
vector 122 Scenario.node[4].wlan[0].mac packetReceivedFromUpper:vector(packetBytes) ETV
attr interpolationmode none
attr title "packets received from upper layer, vector(packetBytes)"
vector 123 Scenario.node[4].wlan[0].mac.dcf.channelAccess.pendingQueue packetPushed:vector(packetBytes) ETV
attr interpolationmode none
attr title "packet pushed, vector(packetBytes)"
vector 124 Scenario.node[4].wlan[0].mac.dcf.channelAccess.pendingQueue queueLength:vector ETV
attr interpolationmode sample-hold
attr source "count(packetPushed) - count(packetPopped) - count(packetRemoved) - count(packetDropped)"
attr title "queue length, vector"
vector 125 Scenario.node[4].wlan[0].mac.dcf.channelAccess.contention backoffPeriodGenerated:vector ETV
attr interpolationmode none
attr title "backoff periods, vector"
vector 126 Scenario.node[4].wlan[0].mac.dcf.channelAccess.contention backoffActive:vector ETV
attr interpolationmode sample-hold
attr source count(backoffStarted)-count(backoffStopped)
attr title "backoff active, vector"
vector 127 Scenario.node[3].wlan[0].mac.dcf.channelAccess.pendingQueue packetPopped:vector(packetBytes) ETV
attr interpolationmode none
attr title "packet popped, vector(packetBytes)"
vector 128 Scenario.node[3].wlan[0].mac.dcf.channelAccess.pendingQueue queueingTime:vector ETV
attr interpolationmode none
attr source queueingTime(packetPopped)
attr title "queueing times, vector"
attr unit s
vector 129 Scenario.node[3].wlan[0].mac.dcf.channelAccess.inProgressFrames queueLength:vector ETV
attr interpolationmode sample-hold
attr source "count(packetEnqueued) - count(packetDequeued)"
attr title "queue length, vector"
vector 130 Scenario.node[3].wlan[0].mac.dcf datarateSelected:vector ETV
attr interpolationmode none
attr title "datarates selected, vector"
vector 131 Scenario.node[3].wlan[0].mac packetSentToLower:vector(packetBytes) ETV
attr interpolationmode none
attr title "packets sent to lower layer, vector(packetBytes)"
vector 132 Scenario.node[3].wlan[0].mac.dcf frameSequenceActive:vector ETV
attr interpolationmode sample-hold
attr source count(frameSequenceStarted)-count(frameSequenceFinished)
attr title "frame sequence active, vector"
vector 133 Scenario.node[3].wlan[0].radio transmissionState:vector ETV
attr interpolationmode sample-hold
attr source transmissionStateChanged
attr title "Radio transmission state, vector"
vector 134 Scenario.node[3].wlan[0].mac.dcf packetSentToPeer:vector(packetBytes) ETV
attr interpolationmode none
attr title "packets sent, vector(packetBytes)"
vector 135 Scenario.node[3].wlan[0].mac.dcf packetSentToPeerMulticast:vector(packetBytes) ETV
attr interpolationmode none
attr source ieee80211Multicast(packetSentToPeer)
attr title "packets sent: multicast, vector(packetBytes)"
vector 136 Scenario.node[3].wlan[0].mac.dcf packetSentToPeerWithoutRetry:vector(packetBytes) ETV
attr interpolationmode none
attr source ieee80211NotRetry(packetSentToPeer)
attr title "packets sent: without retry, vector(packetBytes)"
vector 137 Scenario.node[3].wlan[0].mac.dcf.channelAccess.inProgressFrames queueingTime:vector ETV
attr interpolationmode none
attr source queueingTime(packetDequeued)
attr title "queueing times, vector"
vector 138 Scenario.node[0].wlan[0].mac packetReceivedFromLower:vector(packetBytes) ETV
attr interpolationmode none
attr title "packets received from lower layer, vector(packetBytes)"
vector 139 Scenario.node[0].wlan[0].mac.dcf packetReceivedFromPeer:vector(packetBytes) ETV
attr interpolationmode none
attr title "packets received, vector(packetBytes)"
vector 140 Scenario.node[0].wlan[0].mac.dcf packetReceivedFromPeerMulticast:vector(packetBytes) ETV
attr interpolationmode none
attr source ieee80211Multicast(packetReceivedFromPeer)
attr title "packets received: multicast, vector(packetBytes)"
vector 141 Scenario.node[0].wlan[0].mac.dcf packetReceivedFromPeerWithoutRetry:vector(packetBytes) ETV
attr interpolationmode none
attr source ieee80211NotRetry(packetReceivedFromPeer)
attr title "packets received: without retry, vector(packetBytes)"
vector 142 Scenario.node[0].wlan[0].mac packetSentToUpper:vector(packetBytes) ETV
attr interpolationmode none
attr title "packets sent to upper layer, vector(packetBytes)"
vector 143 Scenario.node[4].wlan[0].mac.dcf.channelAccess.pendingQueue packetPopped:vector(packetBytes) ETV
attr interpolationmode none
attr title "packet popped, vector(packetBytes)"
vector 144 Scenario.node[4].wlan[0].mac.dcf.channelAccess.pendingQueue queueingTime:vector ETV
attr interpolationmode none
attr source queueingTime(packetPopped)
attr title "queueing times, vector"
attr unit s
vector 145 Scenario.node[4].wlan[0].mac.dcf.channelAccess.inProgressFrames queueLength:vector ETV
attr interpolationmode sample-hold
attr source "count(packetEnqueued) - count(packetDequeued)"
attr title "queue length, vector"
vector 146 Scenario.node[4].wlan[0].mac.dcf datarateSelected:vector ETV
attr interpolationmode none
attr title "datarates selected, vector"
vector 147 Scenario.node[4].wlan[0].mac packetSentToLower:vector(packetBytes) ETV
attr interpolationmode none
attr title "packets sent to lower layer, vector(packetBytes)"
vector 148 Scenario.node[4].wlan[0].mac.dcf frameSequenceActive:vector ETV
attr interpolationmode sample-hold
attr source count(frameSequenceStarted)-count(frameSequenceFinished)
attr title "frame sequence active, vector"
vector 149 Scenario.node[4].wlan[0].radio transmissionState:vector ETV
attr interpolationmode sample-hold
attr source transmissionStateChanged
attr title "Radio transmission state, vector"
vector 150 Scenario.node[4].wlan[0].mac.dcf packetSentToPeer:vector(packetBytes) ETV
attr interpolationmode none
attr title "packets sent, vector(packetBytes)"
vector 151 Scenario.node[4].wlan[0].mac.dcf packetSentToPeerMulticast:vector(packetBytes) ETV
attr interpolationmode none
attr source ieee80211Multicast(packetSentToPeer)
attr title "packets sent: multicast, vector(packetBytes)"
vector 152 Scenario.node[4].wlan[0].mac.dcf packetSentToPeerWithoutRetry:vector(packetBytes) ETV
attr interpolationmode none
attr source ieee80211NotRetry(packetSentToPeer)
attr title "packets sent: without retry, vector(packetBytes)"
vector 153 Scenario.node[4].wlan[0].mac.dcf.channelAccess.inProgressFrames queueingTime:vector ETV
attr interpolationmode none
attr source queueingTime(packetDequeued)
attr title "queueing times, vector"
vector 154 Scenario.node[2].wlan[0].mac.dcf.channelAccess.pendingQueue packetPopped:vector(packetBytes) ETV
attr interpolationmode none
attr title "packet popped, vector(packetBytes)"
vector 155 Scenario.node[2].wlan[0].mac.dcf.channelAccess.pendingQueue queueingTime:vector ETV
attr interpolationmode none
attr source queueingTime(packetPopped)
attr title "queueing times, vector"
attr unit s
vector 156 Scenario.node[2].wlan[0].mac.dcf.channelAccess.inProgressFrames queueLength:vector ETV
attr interpolationmode sample-hold
attr source "count(packetEnqueued) - count(packetDequeued)"
attr title "queue length, vector"
vector 157 Scenario.node[2].wlan[0].mac.dcf datarateSelected:vector ETV
attr interpolationmode none
attr title "datarates selected, vector"
vector 158 Scenario.node[2].wlan[0].mac packetSentToLower:vector(packetBytes) ETV
attr interpolationmode none
attr title "packets sent to lower layer, vector(packetBytes)"
vector 159 Scenario.node[2].wlan[0].mac.dcf frameSequenceActive:vector ETV
attr interpolationmode sample-hold
attr source count(frameSequenceStarted)-count(frameSequenceFinished)
attr title "frame sequence active, vector"
vector 160 Scenario.node[2].wlan[0].radio transmissionState:vector ETV
attr interpolationmode sample-hold
attr source transmissionStateChanged
attr title "Radio transmission state, vector"
vector 161 Scenario.node[2].wlan[0].mac.dcf packetSentToPeer:vector(packetBytes) ETV
attr interpolationmode none
attr title "packets sent, vector(packetBytes)"
vector 162 Scenario.node[2].wlan[0].mac.dcf packetSentToPeerMulticast:vector(packetBytes) ETV
attr interpolationmode none
attr source ieee80211Multicast(packetSentToPeer)
attr title "packets sent: multicast, vector(packetBytes)"
vector 163 Scenario.node[2].wlan[0].mac.dcf packetSentToPeerWithoutRetry:vector(packetBytes) ETV
attr interpolationmode none
attr source ieee80211NotRetry(packetSentToPeer)
attr title "packets sent: without retry, vector(packetBytes)"
vector 164 Scenario.node[2].wlan[0].mac.dcf.channelAccess.inProgressFrames queueingTime:vector ETV
attr interpolationmode none
attr source queueingTime(packetDequeued)
attr title "queueing times, vector"
vector 165 Scenario.node[1].wlan[0].mac.dcf.channelAccess.pendingQueue packetPopped:vector(packetBytes) ETV
attr interpolationmode none
attr title "packet popped, vector(packetBytes)"
vector 166 Scenario.node[1].wlan[0].mac.dcf.channelAccess.pendingQueue queueingTime:vector ETV
attr interpolationmode none
attr source queueingTime(packetPopped)
attr title "queueing times, vector"
attr unit s
vector 167 Scenario.node[1].wlan[0].mac.dcf.channelAccess.inProgressFrames queueLength:vector ETV
attr interpolationmode sample-hold
attr source "count(packetEnqueued) - count(packetDequeued)"
attr title "queue length, vector"
vector 168 Scenario.node[1].wlan[0].mac.dcf datarateSelected:vector ETV
attr interpolationmode none
attr title "datarates selected, vector"
vector 169 Scenario.node[1].wlan[0].mac packetSentToLower:vector(packetBytes) ETV
attr interpolationmode none
attr title "packets sent to lower layer, vector(packetBytes)"
vector 170 Scenario.node[1].wlan[0].mac.dcf frameSequenceActive:vector ETV
attr interpolationmode sample-hold
attr source count(frameSequenceStarted)-count(frameSequenceFinished)
attr title "frame sequence active, vector"
vector 171 Scenario.node[1].wlan[0].radio transmissionState:vector ETV
attr interpolationmode sample-hold
attr source transmissionStateChanged
attr title "Radio transmission state, vector"
vector 172 Scenario.node[1].wlan[0].mac.dcf packetSentToPeer:vector(packetBytes) ETV
attr interpolationmode none
attr title "packets sent, vector(packetBytes)"
vector 173 Scenario.node[1].wlan[0].mac.dcf packetSentToPeerMulticast:vector(packetBytes) ETV
attr interpolationmode none
attr source ieee80211Multicast(packetSentToPeer)
attr title "packets sent: multicast, vector(packetBytes)"
vector 174 Scenario.node[1].wlan[0].mac.dcf packetSentToPeerWithoutRetry:vector(packetBytes) ETV
attr interpolationmode none
attr source ieee80211NotRetry(packetSentToPeer)
attr title "packets sent: without retry, vector(packetBytes)"
vector 175 Scenario.node[1].wlan[0].mac.dcf.channelAccess.inProgressFrames queueingTime:vector ETV
attr interpolationmode none
attr source queueingTime(packetDequeued)
attr title "queueing times, vector"
0	12	1.1	0
0	12	1.1	0
0	12	1.1	2
0	344	20	3
0	351	20.000152	2
0	478	20.000735265529	3
0	485	20.000887265529	2
0	580	20.001456990424	3
0	587	20.001608990424	2
0	614	20.001757990424	3
0	621	20.001909990424	2
0	648	20.002149990424	3
0	655	20.002301990424	2
0	682	20.002463990424	3
0	689	20.002615990424	2
0	716	20.002686990424	3
0	723	20.002838990424	2
0	750	20.002961990424	3
0	757	20.003113990424	2
0	784	20.003288990424	3
0	791	20.003440990424	2
0	818	20.003667990424	3
0	825	20.003819990424	2
0	852	20.003981990424	3
0	859	20.004133990424	2
0	886	20.004308990424	3
0	893	20.004460990424	2
0	920	20.004570990424	3
0	927	20.004722990424	2
0	954	20.004819990424	3
0	961	20.004971990424	2
0	988	20.005029990424	3
0	995	20.005181990424	2
0	1022	20.005278990424	3
0	1029	20.005430990424	2
0	1056	20.005553990424	3
0	1063	20.005705990424	2
0	1090	20.005945990424	3
0	1097	20.006097990424	2
0	1124	20.006350990424	3
0	1131	20.006502990424	2
0	1158	20.006755990424	3
0	1165	20.006907990424	2
1	12	1.1	3
2	12	1.1	1
2	344	20	0
2	351	20.000152	1
2	415	20.000224023618	3
2	436	20.000376023618	1
2	449	20.000499265529	3
2	470	20.000651265529	1
2	478	20.000735265529	0
2	485	20.000887265529	1
2	517	20.000971972091	3
2	538	20.001123972091	1
2	549	20.001207990424	3
2	560	20.001359990424	1
2	580	20.001456990424	0
2	587	20.001608990424	1
2	614	20.001757990424	0
2	621	20.001909990424	1
2	648	20.002149990424	0
2	655	20.002301990424	1
2	682	20.002463990424	0
2	689	20.002615990424	1
2	716	20.002686990424	0
2	723	20.002838990424	1
2	750	20.002961990424	0
2	757	20.003113990424	1
2	784	20.003288990424	0
2	791	20.003440990424	1
2	818	20.003667990424	0
2	825	20.003819990424	1
2	852	20.003981990424	0
2	859	20.004133990424	1
2	886	20.004308990424	0
2	893	20.004460990424	1
2	920	20.004570990424	0
2	927	20.004722990424	1
2	954	20.004819990424	0
2	961	20.004971990424	1
2	988	20.005029990424	0
2	995	20.005181990424	1
2	1022	20.005278990424	0
2	1029	20.005430990424	1
2	1056	20.005553990424	0
2	1063	20.005705990424	1
2	1090	20.005945990424	0
2	1097	20.006097990424	1
2	1124	20.006350990424	0
2	1131	20.006502990424	1
2	1158	20.006755990424	0
2	1165	20.006907990424	1
3	12	1.1	15
4	25	2.1	0
4	25	2.1	0
4	25	2.1	2
4	546	20.001207731963	3
4	553	20.001359731963	2
5	25	2.1	3
6	25	2.1	1
6	346	20.000000258461	3
6	352	20.000152258461	1
6	413	20.000223803047	3
6	424	20.000375803047	1
6	448	20.000499019035	3
6	464	20.000651019035	1
6	480	20.00073552399	3
6	486	20.00088752399	1
6	514	20.000971731963	3
6	520	20.001123731963	1
6	546	20.001207731963	0
6	553	20.001359731963	1
6	582	20.001457248885	3
6	588	20.001609248885	1
6	616	20.001758248885	3
6	622	20.001910248885	1
6	650	20.002150248885	3
6	656	20.002302248885	1
6	684	20.002464248885	3
6	690	20.002616248885	1
6	718	20.002687248885	3
6	724	20.002839248885	1
6	752	20.002962248885	3
6	758	20.003114248885	1
6	786	20.003289248885	3
6	792	20.003441248885	1
6	820	20.003668248885	3
6	826	20.003820248885	1
6	854	20.003982248885	3
6	860	20.004134248885	1
6	888	20.004309248885	3
6	894	20.004461248885	1
6	922	20.004571248885	3
6	928	20.004723248885	1
6	956	20.004820248885	3
6	962	20.004972248885	1
6	990	20.005030248885	3
6	996	20.005182248885	1
6	1024	20.005279248885	3
6	1030	20.005431248885	1
6	1058	20.005554248885	3
6	1064	20.005706248885	1
6	1092	20.005946248885	3
6	1098	20.006098248885	1
6	1126	20.006351248885	3
6	1132	20.006503248885	1
6	1160	20.006756248885	3
6	1166	20.006908248885	1
7	25	2.1	15
8	38	3.1	0
8	38	3.1	0
8	38	3.1	2
8	512	20.00097161881	3
8	519	20.00112361881	2
9	38	3.1	3
10	38	3.1	1
10	347	20.000000353281	3
10	366	20.000152353281	1
10	414	20.000223809732	3
10	430	20.000375809732	1
10	447	20.000498981677	3
10	458	20.000650981677	1
10	481	20.00073561881	3
10	492	20.00088761881	1
10	512	20.00097161881	0
10	519	20.00112361881	1
10	548	20.001207845116	3
10	554	20.001359845116	1
10	583	20.001457343705	3
10	594	20.001609343705	1
10	617	20.001758343705	3
10	628	20.001910343705	1
10	651	20.002150343705	3
10	662	20.002302343705	1
10	685	20.002464343705	3
10	696	20.002616343705	1
10	719	20.002687343705	3
10	730	20.002839343705	1
10	753	20.002962343705	3
10	764	20.003114343705	1
10	787	20.003289343705	3
10	798	20.003441343705	1
10	821	20.003668343705	3
10	832	20.003820343705	1
10	855	20.003982343705	3
10	866	20.004134343705	1
10	889	20.004309343705	3
10	900	20.004461343705	1
10	923	20.004571343705	3
10	934	20.004723343705	1
10	957	20.004820343705	3
10	968	20.004972343705	1
10	991	20.005030343705	3
10	1002	20.005182343705	1
10	1025	20.005279343705	3
10	1036	20.005431343705	1
10	1059	20.005554343705	3
10	1070	20.005706343705	1
10	1093	20.005946343705	3
10	1104	20.006098343705	1
10	1127	20.006351343705	3
10	1138	20.006503343705	1
10	1161	20.006756343705	3
10	1172	20.006908343705	1
11	38	3.1	15
12	61	5.1	0
12	61	5.1	0
12	61	5.1	2
12	410	20.000223511809	3
12	417	20.000375511809	2
13	61	5.1	3
14	61	5.1	1
14	348	20.000000511809	3
14	380	20.000152511809	1
14	410	20.000223511809	0
14	417	20.000375511809	1
14	446	20.000498788375	3
14	452	20.000650788375	1
14	482	20.000735777338	3
14	498	20.000887777338	1
14	515	20.000971916733	3
14	526	20.001123916733	1
14	550	20.001208023201	3
14	566	20.001360023201	1
14	584	20.001457502233	3
14	600	20.001609502233	1
14	618	20.001758502233	3
14	634	20.001910502233	1
14	652	20.002150502233	3
14	668	20.002302502233	1
14	686	20.002464502233	3
14	702	20.002616502233	1
14	720	20.002687502233	3
14	736	20.002839502233	1
14	754	20.002962502233	3
14	770	20.003114502233	1
14	788	20.003289502233	3
14	804	20.003441502233	1
14	822	20.003668502233	3
14	838	20.003820502233	1
14	856	20.003982502233	3
14	872	20.004134502233	1
14	890	20.004309502233	3
14	906	20.004461502233	1
14	924	20.004571502233	3
14	940	20.004723502233	1
14	958	20.004820502233	3
14	974	20.004972502233	1
14	992	20.005030502233	3
14	1008	20.005182502233	1
14	1026	20.005279502233	3
14	1042	20.005431502233	1
14	1060	20.005554502233	3
14	1076	20.005706502233	1
14	1094	20.005946502233	3
14	1110	20.006098502233	1
14	1128	20.006351502233	3
14	1144	20.006503502233	1
14	1162	20.006756502233	3
14	1178	20.006908502233	1
15	61	5.1	15
16	74	6.1	0
16	74	6.1	0
16	74	6.1	2
16	444	20.000498650092	3
16	451	20.000650650092	2
17	74	6.1	3
18	74	6.1	1
18	349	20.000000615437	3
18	394	20.000152615437	1
18	412	20.000223650092	3
18	418	20.000375650092	1
18	444	20.000498650092	0
18	451	20.000650650092	1
18	483	20.000735880966	3
18	504	20.000887880966	1
18	516	20.000971950395	3
18	532	20.001123950395	1
18	551	20.001208100906	3
18	572	20.001360100906	1
18	585	20.001457605861	3
18	606	20.001609605861	1
18	619	20.001758605861	3
18	640	20.001910605861	1
18	653	20.002150605861	3
18	674	20.002302605861	1
18	687	20.002464605861	3
18	708	20.002616605861	1
18	721	20.002687605861	3
18	742	20.002839605861	1
18	755	20.002962605861	3
18	776	20.003114605861	1
18	789	20.003289605861	3
18	810	20.003441605861	1
18	823	20.003668605861	3
18	844	20.003820605861	1
18	857	20.003982605861	3
18	878	20.004134605861	1
18	891	20.004309605861	3
18	912	20.004461605861	1
18	925	20.004571605861	3
18	946	20.004723605861	1
18	959	20.004820605861	3
18	980	20.004972605861	1
18	993	20.005030605861	3
18	1014	20.005182605861	1
18	1027	20.005279605861	3
18	1048	20.005431605861	1
18	1061	20.005554605861	3
18	1082	20.005706605861	1
18	1095	20.005946605861	3
18	1116	20.006098605861	1
18	1129	20.006351605861	3
18	1150	20.006503605861	1
18	1163	20.006756605861	3
18	1184	20.006908605861	1
19	74	6.1	15
20	216	20	100
20	270	20	100
21	218	20	108
21	280	20	108
22	219	20	128
22	219	20	128
22	219	20	128
22	219	20	128
22	219	20	128
22	219	20	128
22	219	20	128
22	219	20	128
22	219	20	128
22	219	20	128
22	219	20	128
22	219	20	128
22	219	20	128
22	219	20	128
22	219	20	128
22	219	20	128
22	219	20	128
22	219	20	128
22	219	20	128
22	219	20	128
22	281	20	128
22	281	20	128
22	281	20	128
22	281	20	128
22	281	20	128
22	281	20	128
22	281	20	128
22	281	20	128
22	281	20	128
22	281	20	128
22	281	20	128
22	281	20	128
22	281	20	128
22	281	20	128
22	281	20	128
22	281	20	128
22	281	20	128
22	281	20	128
22	281	20	128
22	281	20	128
23	220	20	128
23	221	20	128
23	222	20	128
23	223	20	128
23	224	20	128
23	225	20	128
23	226	20	128
23	227	20	128
23	228	20	128
23	229	20	128
23	282	20	128
23	283	20	128
23	284	20	128
23	285	20	128
23	286	20	128
23	287	20	128
23	288	20	128
23	289	20	128
23	290	20	128
23	291	20	128
24	220	20	128
24	221	20	128
24	222	20	128
24	223	20	128
24	224	20	128
24	225	20	128
24	226	20	128
24	227	20	128
24	228	20	128
24	229	20	128
24	282	20	128
24	283	20	128
24	284	20	128
24	285	20	128
24	286	20	128
24	287	20	128
24	288	20	128
24	289	20	128
24	290	20	128
24	291	20	128
25	240	20	128
25	241	20	128
25	242	20	128
25	243	20	128
25	244	20	128
25	245	20	128
25	246	20	128
25	247	20	128
25	248	20	128
25	249	20	128
25	302	20	128
25	303	20	128
25	304	20	128
25	305	20	128
25	306	20	128
25	307	20	128
25	308	20	128
25	309	20	128
25	310	20	128
25	311	20	128
25	439	20.000376023618	128
25	473	20.000651265529	128
25	541	20.001123972091	128
25	563	20.001359990424	128
26	250	20	130
26	251	20	130
26	252	20	130
26	253	20	130
26	254	20	130
26	255	20	130
26	256	20	130
26	257	20	130
26	258	20	130
26	259	20	130
26	312	20	130
26	313	20	130
26	314	20	130
26	315	20	130
26	316	20	130
26	317	20	130
26	318	20	130
26	319	20	130
26	320	20	130
26	321	20	130
27	250	20	158
27	251	20	158
27	252	20	158
27	253	20	158
27	254	20	158
27	255	20	158
27	256	20	158
27	257	20	158
27	258	20	158
27	259	20	158
27	312	20	158
27	313	20	158
27	314	20	158
27	315	20	158
27	316	20	158
27	317	20	158
27	318	20	158
27	319	20	158
27	320	20	158
27	321	20	158
28	250	20	1
28	251	20	2
28	252	20	3
28	253	20	4
28	254	20	5
28	255	20	6
28	256	20	7
28	257	20	8
28	258	20	9
28	259	20	10
28	312	20	11
28	313	20	12
28	314	20	13
28	315	20	14
28	316	20	15
28	317	20	16
28	318	20	17
28	319	20	18
28	320	20	19
28	321	20	20
28	343	20	19
28	343	20	18
28	477	20.000735265529	17
28	579	20.001456990424	16
28	613	20.001757990424	15
28	647	20.002149990424	14
28	681	20.002463990424	13
28	715	20.002686990424	12
28	749	20.002961990424	11
28	783	20.003288990424	10
28	817	20.003667990424	9
28	851	20.003981990424	8
28	885	20.004308990424	7
28	919	20.004570990424	6
28	953	20.004819990424	5
28	987	20.005029990424	4
28	1021	20.005278990424	3
28	1055	20.005553990424	2
28	1089	20.005945990424	1
28	1123	20.006350990424	0
29	250	20	8
29	350	20.000152	8
29	484	20.000887265529	7
29	586	20.001608990424	7
29	620	20.001909990424	14
29	654	20.002301990424	8
29	688	20.002615990424	1
29	722	20.002838990424	5
29	756	20.003113990424	9
29	790	20.003440990424	13
29	824	20.003819990424	8
29	858	20.004133990424	9
29	892	20.004460990424	4
29	926	20.004722990424	3
29	960	20.004971990424	0
29	994	20.005181990424	3
29	1028	20.005430990424	5
29	1062	20.005705990424	14
29	1096	20.006097990424	15
29	1130	20.006502990424	15
30	250	20	1
30	342	20	0
30	351	20.000152	1
30	415	20.000224023618	0
30	436	20.000376023618	1
30	449	20.000499265529	0
30	470	20.000651265529	1
30	476	20.000735265529	0
30	485	20.000887265529	1
30	517	20.000971972091	0
30	538	20.001123972091	1
30	549	20.001207990424	0
30	560	20.001359990424	1
30	578	20.001456990424	0
30	587	20.001608990424	1
30	612	20.001757990424	0
30	621	20.001909990424	1
30	646	20.002149990424	0
30	655	20.002301990424	1
30	680	20.002463990424	0
30	689	20.002615990424	1
30	714	20.002686990424	0
30	723	20.002838990424	1
30	748	20.002961990424	0
30	757	20.003113990424	1
30	782	20.003288990424	0
30	791	20.003440990424	1
30	816	20.003667990424	0
30	825	20.003819990424	1
30	850	20.003981990424	0
30	859	20.004133990424	1
30	884	20.004308990424	0
30	893	20.004460990424	1
30	918	20.004570990424	0
30	927	20.004722990424	1
30	952	20.004819990424	0
30	961	20.004971990424	1
30	986	20.005029990424	0
30	995	20.005181990424	1
30	1020	20.005278990424	0
30	1029	20.005430990424	1
30	1054	20.005553990424	0
30	1063	20.005705990424	1
30	1088	20.005945990424	0
30	1097	20.006097990424	1
30	1122	20.006350990424	0
30	1131	20.006502990424	1
30	1156	20.006755990424	0
31	260	20	108
31	261	20	108
31	262	20	108
31	263	20	108
31	264	20	108
31	265	20	108
31	266	20	108
31	267	20	108
31	268	20	108
31	269	20	108
31	322	20	108
31	323	20	108
31	324	20	108
31	325	20	108
31	326	20	108
31	327	20	108
31	328	20	108
31	329	20	108
31	330	20	108
31	331	20	108
31	440	20.000376023618	108
31	474	20.000651265529	108
31	542	20.001123972091	108
31	564	20.001359990424	108
32	260	20	1
32	261	20	2
32	262	20	3
32	263	20	4
32	264	20	5
32	265	20	6
32	266	20	7
32	267	20	8
32	268	20	9
32	269	20	10
32	322	20	11
32	323	20	12
32	324	20	13
32	325	20	14
32	326	20	15
32	327	20	16
32	328	20	17
32	329	20	18
32	330	20	19
32	331	20	20
32	440	20.000376023618	21
32	474	20.000651265529	22
32	542	20.001123972091	23
32	564	20.001359990424	24
33	270	20	100
33	271	20	100
33	272	20	100
33	273	20	100
33	274	20	100
33	275	20	100
33	276	20	100
33	277	20	100
33	278	20	100
33	279	20	100
33	332	20	100
33	333	20	100
33	334	20	100
33	335	20	100
33	336	20	100
33	337	20	100
33	338	20	100
33	339	20	100
33	340	20	100
33	341	20	100
33	441	20.000376023618	100
33	475	20.000651265529	100
33	543	20.001123972091	100
33	565	20.001359990424	100
34	270	0.1	0
34	270	0.2	0
34	270	0.3	0
34	270	0.4	0
34	270	0.5	0
34	270	0.6	0
34	270	0.7	0
34	270	0.8	0
34	270	0.9	0
34	270	1	0
34	270	1.1	0
34	270	1.2	0
34	270	1.3	0
34	270	1.4	0
34	270	1.5	0
34	270	1.6	0
34	270	1.7	0
34	270	1.8	0
34	270	1.9	0
34	270	2	0
34	270	2.1	0
34	270	2.2	0
34	270	2.3	0
34	270	2.4	0
34	270	2.5	0
34	270	2.6	0
34	270	2.7	0
34	270	2.8	0
34	270	2.9	0
34	270	3	0
34	270	3.1	0
34	270	3.2	0
34	270	3.3	0
34	270	3.4	0
34	270	3.5	0
34	270	3.6	0
34	270	3.7	0
34	270	3.8	0
34	270	3.9	0
34	270	4	0
34	270	4.1	0
34	270	4.2	0
34	270	4.3	0
34	270	4.4	0
34	270	4.5	0
34	270	4.6	0
34	270	4.7	0
34	270	4.8	0
34	270	4.9	0
34	270	5	0
34	270	5.1	0
34	270	5.2	0
34	270	5.3	0
34	270	5.4	0
34	270	5.5	0
34	270	5.6	0
34	270	5.7	0
34	270	5.8	0
34	270	5.9	0
34	270	6	0
34	270	6.1	0
34	270	6.2	0
34	270	6.3	0
34	270	6.4	0
34	270	6.5	0
34	270	6.6	0
34	270	6.7	0
34	270	6.8	0
34	270	6.9	0
34	270	7	0
34	270	7.1	0
34	270	7.2	0
34	270	7.3	0
34	270	7.4	0
34	270	7.5	0
34	270	7.6	0
34	270	7.7	0
34	270	7.8	0
34	270	7.9	0
34	270	8	0
34	270	8.1	0
34	270	8.2	0
34	270	8.3	0
34	270	8.4	0
34	270	8.5	0
34	270	8.6	0
34	270	8.7	0
34	270	8.8	0
34	270	8.9	0
34	270	9	0
34	270	9.1	0
34	270	9.2	0
34	270	9.3	0
34	270	9.4	0
34	270	9.5	0
34	270	9.6	0
34	270	9.7	0
34	270	9.8	0
34	270	9.9	0
34	270	10	0
34	270	10.1	0
34	270	10.2	0
34	270	10.3	0
34	270	10.4	0
34	270	10.5	0
34	270	10.6	0
34	270	10.7	0
34	270	10.8	0
34	270	10.9	0
34	270	11	0
34	270	11.1	0
34	270	11.2	0
34	270	11.3	0
34	270	11.4	0
34	270	11.5	0
34	270	11.6	0
34	270	11.7	0
34	270	11.8	0
34	270	11.9	0
34	270	12	0
34	270	12.1	0
34	270	12.2	0
34	270	12.3	0
34	270	12.4	0
34	270	12.5	0
34	270	12.6	0
34	270	12.7	0
34	270	12.8	0
34	270	12.9	0
34	270	13	0
34	270	13.1	0
34	270	13.2	0
34	270	13.3	0
34	270	13.4	0
34	270	13.5	0
34	270	13.6	0
34	270	13.7	0
34	270	13.8	0
34	270	13.9	0
34	270	14	0
34	270	14.1	0
34	270	14.2	0
34	270	14.3	0
34	270	14.4	0
34	270	14.5	0
34	270	14.6	0
34	270	14.7	0
34	270	14.8	0
34	270	14.9	0
34	270	15	0
34	270	15.1	0
34	270	15.2	0
34	270	15.3	0
34	270	15.4	0
34	270	15.5	0
34	270	15.6	0
34	270	15.7	0
34	270	15.8	0
34	270	15.9	0
34	270	16	0
34	270	16.1	0
34	270	16.2	0
34	270	16.3	0
34	270	16.4	0
34	270	16.5	0
34	270	16.6	0
34	270	16.7	0
34	270	16.8	0
34	270	16.9	0
34	270	17	0
34	270	17.1	0
34	270	17.2	0
34	270	17.3	0
34	270	17.4	0
34	270	17.5	0
34	270	17.6	0
34	270	17.7	0
34	270	17.8	0
34	270	17.9	0
34	270	18	0
34	270	18.1	0
34	270	18.2	0
34	270	18.3	0
34	270	18.4	0
34	270	18.5	0
34	270	18.6	0
34	270	18.7	0
34	270	18.8	0
34	270	18.9	0
34	270	19	0
34	270	19.1	0
34	270	19.2	0
34	270	19.3	0
34	270	19.4	0
34	270	19.5	0
34	270	19.6	0
34	270	19.7	0
34	270	19.8	0
34	270	19.9	0
34	270	20	0
34	1615	20.1	192000
34	1615	20.2	0
34	1615	20.3	0
34	1615	20.4	0
34	1615	20.5	0
34	1615	20.6	0
34	1615	20.7	0
34	1615	20.8	0
34	1615	20.9	0
34	1615	21	0
34	1615	21.1	0
34	1615	21.2	0
34	1615	21.3	0
34	1615	21.4	0
34	1615	21.5	0
34	1615	21.6	0
34	1615	21.7	0
34	1615	21.8	0
34	1615	21.9	0
34	1615	22	0
34	1615	22.1	0
34	1615	22.2	0
34	1615	22.3	0
34	1615	22.4	0
34	1615	22.5	0
34	1615	22.6	0
34	1615	22.7	0
34	1615	22.8	0
34	1615	22.9	0
34	1615	23	0
34	1615	23.1	0
34	1615	23.2	0
34	1615	23.3	0
34	1615	23.4	0
34	1615	23.5	0
34	1615	23.6	0
34	1615	23.7	0
34	1615	23.8	0
34	1615	23.9	0
34	1615	24	0
34	1615	24.1	0
34	1615	24.2	0
34	1615	24.3	0
34	1615	24.4	0
34	1615	24.5	0
34	1615	24.6	0
34	1615	24.7	0
34	1615	24.8	0
34	1615	24.9	0
34	1615	25	0
34	1615	25.1	0
34	1615	25.2	0
34	1615	25.3	0
34	1615	25.4	0
34	1615	25.5	0
34	1615	25.6	0
34	1615	25.7	0
34	1615	25.8	0
34	1615	25.9	0
34	1615	26	0
34	1615	26.1	0
34	1615	26.2	0
34	1615	26.3	0
34	1615	26.4	0
34	1615	26.5	0
34	1615	26.6	0
34	1615	26.7	0
34	1615	26.8	0
34	1615	26.9	0
34	1615	27	0
34	1615	27.1	0
34	1615	27.2	0
34	1615	27.3	0
34	1615	27.4	0
34	1615	27.5	0
34	1615	27.6	0
34	1615	27.7	0
34	1615	27.8	0
34	1615	27.9	0
34	1615	28	0
34	1615	28.1	0
34	1615	28.2	0
34	1615	28.3	0
34	1615	28.4	0
34	1615	28.5	0
34	1615	28.6	0
34	1615	28.7	0
34	1615	28.8	0
34	1615	28.9	0
34	1615	29	0
34	1615	29.1	0
34	1615	29.2	0
34	1615	29.3	0
34	1615	29.4	0
34	1615	29.5	0
34	1615	29.6	0
34	1615	29.7	0
34	1615	29.8	0
34	1615	29.9	0
34	1615	30	0
34	1615	30.1	0
34	1615	30.2	0
34	1615	30.3	0
34	1615	30.4	0
34	1615	30.5	0
34	1615	30.6	0
34	1615	30.7	0
34	1615	30.8	0
34	1615	30.9	0
34	1615	31	0
34	1615	31.1	0
34	1615	31.2	0
34	1615	31.3	0
34	1615	31.4	0
34	1615	31.5	0
34	1615	31.6	0
34	1615	31.7	0
34	1615	31.8	0
34	1615	31.9	0
34	1615	32	0
34	1615	32.1	0
34	1615	32.2	0
34	1615	32.3	0
34	1615	32.4	0
34	1615	32.5	0
34	1615	32.6	0
34	1615	32.7	0
34	1615	32.8	0
34	1615	32.9	0
34	1615	33	0
34	1615	33.1	0
34	1615	33.2	0
34	1615	33.3	0
34	1615	33.4	0
34	1615	33.5	0
34	1615	33.6	0
34	1615	33.7	0
34	1615	33.8	0
34	1615	33.9	0
34	1615	34	0
34	1615	34.1	0
34	1615	34.2	0
34	1615	34.3	0
34	1615	34.4	0
34	1615	34.5	0
34	1615	34.6	0
34	1615	34.7	0
34	1615	34.8	0
34	1615	34.9	0
34	1615	35	0
34	1615	35.1	0
34	1615	35.2	0
34	1615	35.3	0
34	1615	35.4	0
34	1615	35.5	0
34	1615	35.6	0
34	1615	35.7	0
34	1615	35.8	0
34	1615	35.9	0
34	1615	36	0
34	1615	36.1	0
34	1615	36.2	0
34	1615	36.3	0
34	1615	36.4	0
34	1615	36.5	0
34	1615	36.6	0
34	1615	36.7	0
34	1615	36.8	0
34	1615	36.9	0
34	1615	37	0
34	1615	37.1	0
34	1615	37.2	0
34	1615	37.3	0
34	1615	37.4	0
34	1615	37.5	0
34	1615	37.6	0
34	1615	37.7	0
34	1615	37.8	0
34	1615	37.9	0
34	1615	38	0
34	1615	38.1	0
34	1615	38.2	0
34	1615	38.3	0
34	1615	38.4	0
34	1615	38.5	0
34	1615	38.6	0
34	1615	38.7	0
34	1615	38.8	0
34	1615	38.9	0
34	1615	39	0
34	1615	39.1	0
34	1615	39.2	0
34	1615	39.3	0
34	1615	39.4	0
34	1615	39.5	0
34	1615	39.6	0
34	1615	39.7	0
34	1615	39.8	0
34	1615	39.9	0
34	1615	40	0
34	1615	40.1	0
34	1615	40.2	0
34	1615	40.3	0
34	1615	40.4	0
34	1615	40.5	0
34	1615	40.6	0
34	1615	40.7	0
34	1615	40.8	0
34	1615	40.9	0
34	1615	41	0
34	1615	41.1	0
34	1615	41.2	0
34	1615	41.3	0
34	1615	41.4	0
34	1615	41.5	0
34	1615	41.6	0
34	1615	41.7	0
34	1615	41.8	0
34	1615	41.9	0
34	1615	42	0
34	1615	42.1	0
34	1615	42.2	0
34	1615	42.3	0
34	1615	42.4	0
34	1615	42.5	0
34	1615	42.6	0
34	1615	42.7	0
34	1615	42.8	0
34	1615	42.9	0
34	1615	43	0
34	1615	43.1	0
34	1615	43.2	0
34	1615	43.3	0
34	1615	43.4	0
34	1615	43.5	0
34	1615	43.6	0
34	1615	43.7	0
34	1615	43.8	0
34	1615	43.9	0
34	1615	44	0
34	1615	44.1	0
34	1615	44.2	0
34	1615	44.3	0
34	1615	44.4	0
34	1615	44.5	0
34	1615	44.6	0
34	1615	44.7	0
34	1615	44.8	0
34	1615	44.9	0
34	1615	45	0
34	1615	45.1	0
34	1615	45.2	0
34	1615	45.3	0
34	1615	45.4	0
34	1615	45.5	0
34	1615	45.6	0
34	1615	45.7	0
34	1615	45.8	0
34	1615	45.9	0
34	1615	46	0
34	1615	46.1	0
34	1615	46.2	0
34	1615	46.3	0
34	1615	46.4	0
34	1615	46.5	0
34	1615	46.6	0
34	1615	46.7	0
34	1615	46.8	0
34	1615	46.9	0
34	1615	47	0
34	1615	47.1	0
34	1615	47.2	0
34	1615	47.3	0
34	1615	47.4	0
34	1615	47.5	0
34	1615	47.6	0
34	1615	47.7	0
34	1615	47.8	0
34	1615	47.9	0
34	1615	48	0
34	1615	48.1	0
34	1615	48.2	0
34	1615	48.3	0
34	1615	48.4	0
34	1615	48.5	0
34	1615	48.6	0
34	1615	48.7	0
34	1615	48.8	0
34	1615	48.9	0
34	1615	49	0
34	1615	49.1	0
34	1615	49.2	0
34	1615	49.3	0
34	1615	49.4	0
34	1615	49.5	0
34	1615	49.6	0
34	1615	49.7	0
34	1615	49.8	0
34	1615	49.9	0
34	1615	50	0
34	1615	50.1	0
34	1615	50.2	0
34	1615	50.3	0
34	1615	50.4	0
34	1615	50.5	0
34	1615	50.6	0
34	1615	50.7	0
34	1615	50.8	0
34	1615	50.9	0
34	1615	51	0
34	1615	51.1	0
34	1615	51.2	0
34	1615	51.3	0
34	1615	51.4	0
34	1615	51.5	0
34	1615	51.6	0
34	1615	51.7	0
34	1615	51.8	0
34	1615	51.9	0
34	1615	52	0
34	1615	52.1	0
34	1615	52.2	0
34	1615	52.3	0
34	1615	52.4	0
34	1615	52.5	0
34	1615	52.6	0
34	1615	52.7	0
34	1615	52.8	0
34	1615	52.9	0
34	1615	53	0
34	1615	53.1	0
34	1615	53.2	0
34	1615	53.3	0
34	1615	53.4	0
34	1615	53.5	0
34	1615	53.6	0
34	1615	53.7	0
34	1615	53.8	0
34	1615	53.9	0
34	1615	54	0
34	1615	54.1	0
34	1615	54.2	0
34	1615	54.3	0
34	1615	54.4	0
34	1615	54.5	0
34	1615	54.6	0
34	1615	54.7	0
34	1615	54.8	0
34	1615	54.9	0
34	1615	55	0
34	1615	55.1	0
34	1615	55.2	0
34	1615	55.3	0
34	1615	55.4	0
34	1615	55.5	0
34	1615	55.6	0
34	1615	55.7	0
34	1615	55.8	0
34	1615	55.9	0
34	1615	56	0
34	1615	56.1	0
34	1615	56.2	0
34	1615	56.3	0
34	1615	56.4	0
34	1615	56.5	0
34	1615	56.6	0
34	1615	56.7	0
34	1615	56.8	0
34	1615	56.9	0
34	1615	57	0
34	1615	57.1	0
34	1615	57.2	0
34	1615	57.3	0
34	1615	57.4	0
34	1615	57.5	0
34	1615	57.6	0
34	1615	57.7	0
34	1615	57.8	0
34	1615	57.9	0
34	1615	58	0
34	1615	58.1	0
34	1615	58.2	0
34	1615	58.3	0
34	1615	58.4	0
34	1615	58.5	0
34	1615	58.6	0
34	1615	58.7	0
34	1615	58.8	0
34	1615	58.9	0
34	1615	59	0
34	1615	59.1	0
34	1615	59.2	0
34	1615	59.3	0
34	1615	59.4	0
34	1615	59.5	0
34	1615	59.6	0
34	1615	59.7	0
34	1615	59.8	0
34	1615	59.9	0
34	1615	60	0
35	270	20	0
35	271	20	0
35	272	20	0
35	273	20	0
35	274	20	0
35	275	20	0
35	276	20	0
35	277	20	0
35	278	20	0
35	279	20	0
35	332	20	0
35	333	20	0
35	334	20	0
35	335	20	0
35	336	20	0
35	337	20	0
35	338	20	0
35	339	20	0
35	340	20	0
35	341	20	0
35	441	20.000376023618	0.000376023618
35	475	20.000651265529	0.000651265529
35	543	20.001123972091	0.001123972091
35	565	20.001359990424	0.001359990424
36	343	20	158
36	343	20	158
36	477	20.000735265529	158
36	579	20.001456990424	158
36	613	20.001757990424	158
36	647	20.002149990424	158
36	681	20.002463990424	158
36	715	20.002686990424	158
36	749	20.002961990424	158
36	783	20.003288990424	158
36	817	20.003667990424	158
36	851	20.003981990424	158
36	885	20.004308990424	158
36	919	20.004570990424	158
36	953	20.004819990424	158
36	987	20.005029990424	158
36	1021	20.005278990424	158
36	1055	20.005553990424	158
36	1089	20.005945990424	158
36	1123	20.006350990424	158
37	343	20	0
37	343	20	0
37	477	20.000735265529	0.000735265529
37	579	20.001456990424	0.001456990424
37	613	20.001757990424	0.001757990424
37	647	20.002149990424	0.002149990424
37	681	20.002463990424	0.002463990424
37	715	20.002686990424	0.002686990424
37	749	20.002961990424	0.002961990424
37	783	20.003288990424	0.003288990424
37	817	20.003667990424	0.003667990424
37	851	20.003981990424	0.003981990424
37	885	20.004308990424	0.004308990424
37	919	20.004570990424	0.004570990424
37	953	20.004819990424	0.004819990424
37	987	20.005029990424	0.005029990424
37	1021	20.005278990424	0.005278990424
37	1055	20.005553990424	0.005553990424
37	1089	20.005945990424	0.005945990424
37	1123	20.006350990424	0.006350990424
38	343	20	1
38	343	20	2
38	350	20.000152	1
38	477	20.000735265529	2
38	484	20.000887265529	1
38	579	20.001456990424	2
38	586	20.001608990424	1
38	613	20.001757990424	2
38	620	20.001909990424	1
38	647	20.002149990424	2
38	654	20.002301990424	1
38	681	20.002463990424	2
38	688	20.002615990424	1
38	715	20.002686990424	2
38	722	20.002838990424	1
38	749	20.002961990424	2
38	756	20.003113990424	1
38	783	20.003288990424	2
38	790	20.003440990424	1
38	817	20.003667990424	2
38	824	20.003819990424	1
38	851	20.003981990424	2
38	858	20.004133990424	1
38	885	20.004308990424	2
38	892	20.004460990424	1
38	919	20.004570990424	2
38	926	20.004722990424	1
38	953	20.004819990424	2
38	960	20.004971990424	1
38	987	20.005029990424	2
38	994	20.005181990424	1
38	1021	20.005278990424	2
38	1028	20.005430990424	1
38	1055	20.005553990424	2
38	1062	20.005705990424	1
38	1089	20.005945990424	2
38	1096	20.006097990424	1
38	1123	20.006350990424	2
38	1130	20.006502990424	1
38	1164	20.006907990424	0
39	343	20	12000000
39	477	20.000735265529	12000000
39	579	20.001456990424	12000000
39	613	20.001757990424	12000000
39	647	20.002149990424	12000000
39	681	20.002463990424	12000000
39	715	20.002686990424	12000000
39	749	20.002961990424	12000000
39	783	20.003288990424	12000000
39	817	20.003667990424	12000000
39	851	20.003981990424	12000000
39	885	20.004308990424	12000000
39	919	20.004570990424	12000000
39	953	20.004819990424	12000000
39	987	20.005029990424	12000000
39	1021	20.005278990424	12000000
39	1055	20.005553990424	12000000
39	1089	20.005945990424	12000000
39	1123	20.006350990424	12000000
39	1157	20.006755990424	12000000
40	343	20	158
40	477	20.000735265529	158
40	579	20.001456990424	158
40	613	20.001757990424	158
40	647	20.002149990424	158
40	681	20.002463990424	158
40	715	20.002686990424	158
40	749	20.002961990424	158
40	783	20.003288990424	158
40	817	20.003667990424	158
40	851	20.003981990424	158
40	885	20.004308990424	158
40	919	20.004570990424	158
40	953	20.004819990424	158
40	987	20.005029990424	158
40	1021	20.005278990424	158
40	1055	20.005553990424	158
40	1089	20.005945990424	158
40	1123	20.006350990424	158
40	1157	20.006755990424	158
41	343	20	1
41	350	20.000152	0
41	477	20.000735265529	1
41	484	20.000887265529	0
41	579	20.001456990424	1
41	586	20.001608990424	0
41	613	20.001757990424	1
41	620	20.001909990424	0
41	647	20.002149990424	1
41	654	20.002301990424	0
41	681	20.002463990424	1
41	688	20.002615990424	0
41	715	20.002686990424	1
41	722	20.002838990424	0
41	749	20.002961990424	1
41	756	20.003113990424	0
41	783	20.003288990424	1
41	790	20.003440990424	0
41	817	20.003667990424	1
41	824	20.003819990424	0
41	851	20.003981990424	1
41	858	20.004133990424	0
41	885	20.004308990424	1
41	892	20.004460990424	0
41	919	20.004570990424	1
41	926	20.004722990424	0
41	953	20.004819990424	1
41	960	20.004971990424	0
41	987	20.005029990424	1
41	994	20.005181990424	0
41	1021	20.005278990424	1
41	1028	20.005430990424	0
41	1055	20.005553990424	1
41	1062	20.005705990424	0
41	1089	20.005945990424	1
41	1096	20.006097990424	0
41	1123	20.006350990424	1
41	1130	20.006502990424	0
41	1157	20.006755990424	1
41	1164	20.006907990424	0
42	344	20	1
42	345	20	2
42	350	20.000152	1
42	351	20.000152	0
42	478	20.000735265529	1
42	479	20.000735265529	2
42	484	20.000887265529	1
42	485	20.000887265529	0
42	580	20.001456990424	1
42	581	20.001456990424	2
42	586	20.001608990424	1
42	587	20.001608990424	0
42	614	20.001757990424	1
42	615	20.001757990424	2
42	620	20.001909990424	1
42	621	20.001909990424	0
42	648	20.002149990424	1
42	649	20.002149990424	2
42	654	20.002301990424	1
42	655	20.002301990424	0
42	682	20.002463990424	1
42	683	20.002463990424	2
42	688	20.002615990424	1
42	689	20.002615990424	0
42	716	20.002686990424	1
42	717	20.002686990424	2
42	722	20.002838990424	1
42	723	20.002838990424	0
42	750	20.002961990424	1
42	751	20.002961990424	2
42	756	20.003113990424	1
42	757	20.003113990424	0
42	784	20.003288990424	1
42	785	20.003288990424	2
42	790	20.003440990424	1
42	791	20.003440990424	0
42	818	20.003667990424	1
42	819	20.003667990424	2
42	824	20.003819990424	1
42	825	20.003819990424	0
42	852	20.003981990424	1
42	853	20.003981990424	2
42	858	20.004133990424	1
42	859	20.004133990424	0
42	886	20.004308990424	1
42	887	20.004308990424	2
42	892	20.004460990424	1
42	893	20.004460990424	0
42	920	20.004570990424	1
42	921	20.004570990424	2
42	926	20.004722990424	1
42	927	20.004722990424	0
42	954	20.004819990424	1
42	955	20.004819990424	2
42	960	20.004971990424	1
42	961	20.004971990424	0
42	988	20.005029990424	1
42	989	20.005029990424	2
42	994	20.005181990424	1
42	995	20.005181990424	0
42	1022	20.005278990424	1
42	1023	20.005278990424	2
42	1028	20.005430990424	1
42	1029	20.005430990424	0
42	1056	20.005553990424	1
42	1057	20.005553990424	2
42	1062	20.005705990424	1
42	1063	20.005705990424	0
42	1090	20.005945990424	1
42	1091	20.005945990424	2
42	1096	20.006097990424	1
42	1097	20.006097990424	0
42	1124	20.006350990424	1
42	1125	20.006350990424	2
42	1130	20.006502990424	1
42	1131	20.006502990424	0
42	1158	20.006755990424	1
42	1159	20.006755990424	2
42	1164	20.006907990424	1
42	1165	20.006907990424	0
43	350	20.000152	158
43	484	20.000887265529	158
43	586	20.001608990424	158
43	620	20.001909990424	158
43	654	20.002301990424	158
43	688	20.002615990424	158
43	722	20.002838990424	158
43	756	20.003113990424	158
43	790	20.003440990424	158
43	824	20.003819990424	158
43	858	20.004133990424	158
43	892	20.004460990424	158
43	926	20.004722990424	158
43	960	20.004971990424	158
43	994	20.005181990424	158
43	1028	20.005430990424	158
43	1062	20.005705990424	158
43	1096	20.006097990424	158
43	1130	20.006502990424	158
43	1164	20.006907990424	158
44	350	20.000152	158
44	484	20.000887265529	158
44	586	20.001608990424	158
44	620	20.001909990424	158
44	654	20.002301990424	158
44	688	20.002615990424	158
44	722	20.002838990424	158
44	756	20.003113990424	158
44	790	20.003440990424	158
44	824	20.003819990424	158
44	858	20.004133990424	158
44	892	20.004460990424	158
44	926	20.004722990424	158
44	960	20.004971990424	158
44	994	20.005181990424	158
44	1028	20.005430990424	158
44	1062	20.005705990424	158
44	1096	20.006097990424	158
44	1130	20.006502990424	158
44	1164	20.006907990424	158
45	350	20.000152	158
45	484	20.000887265529	158
45	586	20.001608990424	158
45	620	20.001909990424	158
45	654	20.002301990424	158
45	688	20.002615990424	158
45	722	20.002838990424	158
45	756	20.003113990424	158
45	790	20.003440990424	158
45	824	20.003819990424	158
45	858	20.004133990424	158
45	892	20.004460990424	158
45	926	20.004722990424	158
45	960	20.004971990424	158
45	994	20.005181990424	158
45	1028	20.005430990424	158
45	1062	20.005705990424	158
45	1096	20.006097990424	158
45	1130	20.006502990424	158
45	1164	20.006907990424	158
46	350	20.000152	0.000152
46	484	20.000887265529	0.000887265529
46	586	20.001608990424	0.000873724895
46	620	20.001909990424	0.000453
46	654	20.002301990424	0.000544
46	688	20.002615990424	0.000466
46	722	20.002838990424	0.000375
46	756	20.003113990424	0.000427
46	790	20.003440990424	0.000479
46	824	20.003819990424	0.000531
46	858	20.004133990424	0.000466
46	892	20.004460990424	0.000479
46	926	20.004722990424	0.000414
46	960	20.004971990424	0.000401
46	994	20.005181990424	0.000362
46	1028	20.005430990424	0.000401
46	1062	20.005705990424	0.000427
46	1096	20.006097990424	0.000544
46	1130	20.006502990424	0.000557
46	1164	20.006907990424	0.000557
47	353	20.000152258461	158
47	425	20.000375803047	158
47	465	20.000651019035	158
47	487	20.00088752399	158
47	521	20.001123731963	158
47	589	20.001609248885	158
47	623	20.001910248885	158
47	657	20.002302248885	158
47	691	20.002616248885	158
47	725	20.002839248885	158
47	759	20.003114248885	158
47	793	20.003441248885	158
47	827	20.003820248885	158
47	861	20.004134248885	158
47	895	20.004461248885	158
47	929	20.004723248885	158
47	963	20.004972248885	158
47	997	20.005182248885	158
47	1031	20.005431248885	158
47	1065	20.005706248885	158
47	1099	20.006098248885	158
47	1133	20.006503248885	158
47	1167	20.006908248885	158
48	353	20.000152258461	158
48	425	20.000375803047	158
48	465	20.000651019035	158
48	487	20.00088752399	158
48	521	20.001123731963	158
48	589	20.001609248885	158
48	623	20.001910248885	158
48	657	20.002302248885	158
48	691	20.002616248885	158
48	725	20.002839248885	158
48	759	20.003114248885	158
48	793	20.003441248885	158
48	827	20.003820248885	158
48	861	20.004134248885	158
48	895	20.004461248885	158
48	929	20.004723248885	158
48	963	20.004972248885	158
48	997	20.005182248885	158
48	1031	20.005431248885	158
48	1065	20.005706248885	158
48	1099	20.006098248885	158
48	1133	20.006503248885	158
48	1167	20.006908248885	158
49	353	20.000152258461	158
49	425	20.000375803047	158
49	465	20.000651019035	158
49	487	20.00088752399	158
49	521	20.001123731963	158
49	589	20.001609248885	158
49	623	20.001910248885	158
49	657	20.002302248885	158
49	691	20.002616248885	158
49	725	20.002839248885	158
49	759	20.003114248885	158
49	793	20.003441248885	158
49	827	20.003820248885	158
49	861	20.004134248885	158
49	895	20.004461248885	158
49	929	20.004723248885	158
49	963	20.004972248885	158
49	997	20.005182248885	158
49	1031	20.005431248885	158
49	1065	20.005706248885	158
49	1099	20.006098248885	158
49	1133	20.006503248885	158
49	1167	20.006908248885	158
50	353	20.000152258461	158
50	425	20.000375803047	158
50	465	20.000651019035	158
50	487	20.00088752399	158
50	521	20.001123731963	158
50	589	20.001609248885	158
50	623	20.001910248885	158
50	657	20.002302248885	158
50	691	20.002616248885	158
50	725	20.002839248885	158
50	759	20.003114248885	158
50	793	20.003441248885	158
50	827	20.003820248885	158
50	861	20.004134248885	158
50	895	20.004461248885	158
50	929	20.004723248885	158
50	963	20.004972248885	158
50	997	20.005182248885	158
50	1031	20.005431248885	158
50	1065	20.005706248885	158
50	1099	20.006098248885	158
50	1133	20.006503248885	158
50	1167	20.006908248885	158
51	353	20.000152258461	130
51	425	20.000375803047	130
51	465	20.000651019035	130
51	487	20.00088752399	130
51	521	20.001123731963	130
51	589	20.001609248885	130
51	623	20.001910248885	130
51	657	20.002302248885	130
51	691	20.002616248885	130
51	725	20.002839248885	130
51	759	20.003114248885	130
51	793	20.003441248885	130
51	827	20.003820248885	130
51	861	20.004134248885	130
51	895	20.004461248885	130
51	929	20.004723248885	130
51	963	20.004972248885	130
51	997	20.005182248885	130
51	1031	20.005431248885	130
51	1065	20.005706248885	130
51	1099	20.006098248885	130
51	1133	20.006503248885	130
51	1167	20.006908248885	130
52	355	20.000152258461	128
52	362	20.000152258461	128
52	427	20.000375803047	128
52	467	20.000651019035	128
52	489	20.00088752399	128
52	523	20.001123731963	128
52	591	20.001609248885	128
52	625	20.001910248885	128
52	659	20.002302248885	128
52	693	20.002616248885	128
52	727	20.002839248885	128
52	761	20.003114248885	128
52	795	20.003441248885	128
52	829	20.003820248885	128
52	863	20.004134248885	128
52	897	20.004461248885	128
52	931	20.004723248885	128
52	965	20.004972248885	128
52	999	20.005182248885	128
52	1033	20.005431248885	128
52	1067	20.005706248885	128
52	1101	20.006098248885	128
52	1135	20.006503248885	128
52	1169	20.006908248885	128
53	356	20.000152258461	108
53	364	20.000152258461	108
53	428	20.000375803047	108
53	468	20.000651019035	108
53	490	20.00088752399	108
53	524	20.001123731963	108
53	592	20.001609248885	108
53	626	20.001910248885	108
53	660	20.002302248885	108
53	694	20.002616248885	108
53	728	20.002839248885	108
53	762	20.003114248885	108
53	796	20.003441248885	108
53	830	20.003820248885	108
53	864	20.004134248885	108
53	898	20.004461248885	108
53	932	20.004723248885	108
53	966	20.004972248885	108
53	1000	20.005182248885	108
53	1034	20.005431248885	108
53	1068	20.005706248885	108
53	1102	20.006098248885	108
53	1136	20.006503248885	108
53	1170	20.006908248885	108
54	356	20.000152258461	1
54	364	20.000152258461	2
54	428	20.000375803047	3
54	468	20.000651019035	4
54	490	20.00088752399	5
54	524	20.001123731963	6
54	592	20.001609248885	7
54	626	20.001910248885	8
54	660	20.002302248885	9
54	694	20.002616248885	10
54	728	20.002839248885	11
54	762	20.003114248885	12
54	796	20.003441248885	13
54	830	20.003820248885	14
54	864	20.004134248885	15
54	898	20.004461248885	16
54	932	20.004723248885	17
54	966	20.004972248885	18
54	1000	20.005182248885	19
54	1034	20.005431248885	20
54	1068	20.005706248885	21
54	1102	20.006098248885	22
54	1136	20.006503248885	23
54	1170	20.006908248885	24
55	357	20.000152258461	100
55	365	20.000152258461	100
55	429	20.000375803047	100
55	469	20.000651019035	100
55	491	20.00088752399	100
55	525	20.001123731963	100
55	593	20.001609248885	100
55	627	20.001910248885	100
55	661	20.002302248885	100
55	695	20.002616248885	100
55	729	20.002839248885	100
55	763	20.003114248885	100
55	797	20.003441248885	100
55	831	20.003820248885	100
55	865	20.004134248885	100
55	899	20.004461248885	100
55	933	20.004723248885	100
55	967	20.004972248885	100
55	1001	20.005182248885	100
55	1035	20.005431248885	100
55	1069	20.005706248885	100
55	1103	20.006098248885	100
55	1137	20.006503248885	100
55	1171	20.006908248885	100
56	357	0.1	0
56	357	0.2	0
56	357	0.3	0
56	357	0.4	0
56	357	0.5	0
56	357	0.6	0
56	357	0.7	0
56	357	0.8	0
56	357	0.9	0
56	357	1	0
56	357	1.1	0
56	357	1.2	0
56	357	1.3	0
56	357	1.4	0
56	357	1.5	0
56	357	1.6	0
56	357	1.7	0
56	357	1.8	0
56	357	1.9	0
56	357	2	0
56	357	2.1	0
56	357	2.2	0
56	357	2.3	0
56	357	2.4	0
56	357	2.5	0
56	357	2.6	0
56	357	2.7	0
56	357	2.8	0
56	357	2.9	0
56	357	3	0
56	357	3.1	0
56	357	3.2	0
56	357	3.3	0
56	357	3.4	0
56	357	3.5	0
56	357	3.6	0
56	357	3.7	0
56	357	3.8	0
56	357	3.9	0
56	357	4	0
56	357	4.1	0
56	357	4.2	0
56	357	4.3	0
56	357	4.4	0
56	357	4.5	0
56	357	4.6	0
56	357	4.7	0
56	357	4.8	0
56	357	4.9	0
56	357	5	0
56	357	5.1	0
56	357	5.2	0
56	357	5.3	0
56	357	5.4	0
56	357	5.5	0
56	357	5.6	0
56	357	5.7	0
56	357	5.8	0
56	357	5.9	0
56	357	6	0
56	357	6.1	0
56	357	6.2	0
56	357	6.3	0
56	357	6.4	0
56	357	6.5	0
56	357	6.6	0
56	357	6.7	0
56	357	6.8	0
56	357	6.9	0
56	357	7	0
56	357	7.1	0
56	357	7.2	0
56	357	7.3	0
56	357	7.4	0
56	357	7.5	0
56	357	7.6	0
56	357	7.7	0
56	357	7.8	0
56	357	7.9	0
56	357	8	0
56	357	8.1	0
56	357	8.2	0
56	357	8.3	0
56	357	8.4	0
56	357	8.5	0
56	357	8.6	0
56	357	8.7	0
56	357	8.8	0
56	357	8.9	0
56	357	9	0
56	357	9.1	0
56	357	9.2	0
56	357	9.3	0
56	357	9.4	0
56	357	9.5	0
56	357	9.6	0
56	357	9.7	0
56	357	9.8	0
56	357	9.9	0
56	357	10	0
56	357	10.1	0
56	357	10.2	0
56	357	10.3	0
56	357	10.4	0
56	357	10.5	0
56	357	10.6	0
56	357	10.7	0
56	357	10.8	0
56	357	10.9	0
56	357	11	0
56	357	11.1	0
56	357	11.2	0
56	357	11.3	0
56	357	11.4	0
56	357	11.5	0
56	357	11.6	0
56	357	11.7	0
56	357	11.8	0
56	357	11.9	0
56	357	12	0
56	357	12.1	0
56	357	12.2	0
56	357	12.3	0
56	357	12.4	0
56	357	12.5	0
56	357	12.6	0
56	357	12.7	0
56	357	12.8	0
56	357	12.9	0
56	357	13	0
56	357	13.1	0
56	357	13.2	0
56	357	13.3	0
56	357	13.4	0
56	357	13.5	0
56	357	13.6	0
56	357	13.7	0
56	357	13.8	0
56	357	13.9	0
56	357	14	0
56	357	14.1	0
56	357	14.2	0
56	357	14.3	0
56	357	14.4	0
56	357	14.5	0
56	357	14.6	0
56	357	14.7	0
56	357	14.8	0
56	357	14.9	0
56	357	15	0
56	357	15.1	0
56	357	15.2	0
56	357	15.3	0
56	357	15.4	0
56	357	15.5	0
56	357	15.6	0
56	357	15.7	0
56	357	15.8	0
56	357	15.9	0
56	357	16	0
56	357	16.1	0
56	357	16.2	0
56	357	16.3	0
56	357	16.4	0
56	357	16.5	0
56	357	16.6	0
56	357	16.7	0
56	357	16.8	0
56	357	16.9	0
56	357	17	0
56	357	17.1	0
56	357	17.2	0
56	357	17.3	0
56	357	17.4	0
56	357	17.5	0
56	357	17.6	0
56	357	17.7	0
56	357	17.8	0
56	357	17.9	0
56	357	18	0
56	357	18.1	0
56	357	18.2	0
56	357	18.3	0
56	357	18.4	0
56	357	18.5	0
56	357	18.6	0
56	357	18.7	0
56	357	18.8	0
56	357	18.9	0
56	357	19	0
56	357	19.1	0
56	357	19.2	0
56	357	19.3	0
56	357	19.4	0
56	357	19.5	0
56	357	19.6	0
56	357	19.7	0
56	357	19.8	0
56	357	19.9	0
56	357	20	0
56	1615	20.1	192000
56	1615	20.2	0
56	1615	20.3	0
56	1615	20.4	0
56	1615	20.5	0
56	1615	20.6	0
56	1615	20.7	0
56	1615	20.8	0
56	1615	20.9	0
56	1615	21	0
56	1615	21.1	0
56	1615	21.2	0
56	1615	21.3	0
56	1615	21.4	0
56	1615	21.5	0
56	1615	21.6	0
56	1615	21.7	0
56	1615	21.8	0
56	1615	21.9	0
56	1615	22	0
56	1615	22.1	0
56	1615	22.2	0
56	1615	22.3	0
56	1615	22.4	0
56	1615	22.5	0
56	1615	22.6	0
56	1615	22.7	0
56	1615	22.8	0
56	1615	22.9	0
56	1615	23	0
56	1615	23.1	0
56	1615	23.2	0
56	1615	23.3	0
56	1615	23.4	0
56	1615	23.5	0
56	1615	23.6	0
56	1615	23.7	0
56	1615	23.8	0
56	1615	23.9	0
56	1615	24	0
56	1615	24.1	0
56	1615	24.2	0
56	1615	24.3	0
56	1615	24.4	0
56	1615	24.5	0
56	1615	24.6	0
56	1615	24.7	0
56	1615	24.8	0
56	1615	24.9	0
56	1615	25	0
56	1615	25.1	0
56	1615	25.2	0
56	1615	25.3	0
56	1615	25.4	0
56	1615	25.5	0
56	1615	25.6	0
56	1615	25.7	0
56	1615	25.8	0
56	1615	25.9	0
56	1615	26	0
56	1615	26.1	0
56	1615	26.2	0
56	1615	26.3	0
56	1615	26.4	0
56	1615	26.5	0
56	1615	26.6	0
56	1615	26.7	0
56	1615	26.8	0
56	1615	26.9	0
56	1615	27	0
56	1615	27.1	0
56	1615	27.2	0
56	1615	27.3	0
56	1615	27.4	0
56	1615	27.5	0
56	1615	27.6	0
56	1615	27.7	0
56	1615	27.8	0
56	1615	27.9	0
56	1615	28	0
56	1615	28.1	0
56	1615	28.2	0
56	1615	28.3	0
56	1615	28.4	0
56	1615	28.5	0
56	1615	28.6	0
56	1615	28.7	0
56	1615	28.8	0
56	1615	28.9	0
56	1615	29	0
56	1615	29.1	0
56	1615	29.2	0
56	1615	29.3	0
56	1615	29.4	0
56	1615	29.5	0
56	1615	29.6	0
56	1615	29.7	0
56	1615	29.8	0
56	1615	29.9	0
56	1615	30	0
56	1615	30.1	0
56	1615	30.2	0
56	1615	30.3	0
56	1615	30.4	0
56	1615	30.5	0
56	1615	30.6	0
56	1615	30.7	0
56	1615	30.8	0
56	1615	30.9	0
56	1615	31	0
56	1615	31.1	0
56	1615	31.2	0
56	1615	31.3	0
56	1615	31.4	0
56	1615	31.5	0
56	1615	31.6	0
56	1615	31.7	0
56	1615	31.8	0
56	1615	31.9	0
56	1615	32	0
56	1615	32.1	0
56	1615	32.2	0
56	1615	32.3	0
56	1615	32.4	0
56	1615	32.5	0
56	1615	32.6	0
56	1615	32.7	0
56	1615	32.8	0
56	1615	32.9	0
56	1615	33	0
56	1615	33.1	0
56	1615	33.2	0
56	1615	33.3	0
56	1615	33.4	0
56	1615	33.5	0
56	1615	33.6	0
56	1615	33.7	0
56	1615	33.8	0
56	1615	33.9	0
56	1615	34	0
56	1615	34.1	0
56	1615	34.2	0
56	1615	34.3	0
56	1615	34.4	0
56	1615	34.5	0
56	1615	34.6	0
56	1615	34.7	0
56	1615	34.8	0
56	1615	34.9	0
56	1615	35	0
56	1615	35.1	0
[...]
98	385	20.000152511809	100
99	386	20.000152511809	108
100	388	20.000152511809	128
101	388	20.000152511809	128
102	391	20.000152511809	130
103	391	20.000152511809	158
104	391	20.000152511809	1
104	409	20.000223511809	0
105	391	20.000152511809	1
106	391	20.000152511809	1
106	408	20.000223511809	0
107	395	20.000152615437	158
107	419	20.000375650092	158
107	505	20.000887880966	158
107	533	20.001123950395	158
107	573	20.001360100906	158
107	607	20.001609605861	158
107	641	20.001910605861	158
107	675	20.002302605861	158
107	709	20.002616605861	158
107	743	20.002839605861	158
107	777	20.003114605861	158
107	811	20.003441605861	158
107	845	20.003820605861	158
107	879	20.004134605861	158
107	913	20.004461605861	158
107	947	20.004723605861	158
107	981	20.004972605861	158
107	1015	20.005182605861	158
107	1049	20.005431605861	158
107	1083	20.005706605861	158
107	1117	20.006098605861	158
107	1151	20.006503605861	158
107	1185	20.006908605861	158
108	395	20.000152615437	158
108	419	20.000375650092	158
108	505	20.000887880966	158
108	533	20.001123950395	158
108	573	20.001360100906	158
108	607	20.001609605861	158
108	641	20.001910605861	158
108	675	20.002302605861	158
108	709	20.002616605861	158
108	743	20.002839605861	158
108	777	20.003114605861	158
108	811	20.003441605861	158
108	845	20.003820605861	158
108	879	20.004134605861	158
108	913	20.004461605861	158
108	947	20.004723605861	158
108	981	20.004972605861	158
108	1015	20.005182605861	158
108	1049	20.005431605861	158
108	1083	20.005706605861	158
108	1117	20.006098605861	158
108	1151	20.006503605861	158
108	1185	20.006908605861	158
109	395	20.000152615437	158
109	419	20.000375650092	158
109	505	20.000887880966	158
109	533	20.001123950395	158
109	573	20.001360100906	158
109	607	20.001609605861	158
109	641	20.001910605861	158
109	675	20.002302605861	158
109	709	20.002616605861	158
109	743	20.002839605861	158
109	777	20.003114605861	158
109	811	20.003441605861	158
109	845	20.003820605861	158
109	879	20.004134605861	158
109	913	20.004461605861	158
109	947	20.004723605861	158
109	981	20.004972605861	158
109	1015	20.005182605861	158
109	1049	20.005431605861	158
109	1083	20.005706605861	158
109	1117	20.006098605861	158
109	1151	20.006503605861	158
109	1185	20.006908605861	158
110	395	20.000152615437	158
110	419	20.000375650092	158
110	505	20.000887880966	158
110	533	20.001123950395	158
110	573	20.001360100906	158
110	607	20.001609605861	158
110	641	20.001910605861	158
110	675	20.002302605861	158
110	709	20.002616605861	158
110	743	20.002839605861	158
110	777	20.003114605861	158
110	811	20.003441605861	158
110	845	20.003820605861	158
110	879	20.004134605861	158
110	913	20.004461605861	158
110	947	20.004723605861	158
110	981	20.004972605861	158
110	1015	20.005182605861	158
110	1049	20.005431605861	158
110	1083	20.005706605861	158
110	1117	20.006098605861	158
110	1151	20.006503605861	158
110	1185	20.006908605861	158
111	395	20.000152615437	130
111	419	20.000375650092	130
111	505	20.000887880966	130
111	533	20.001123950395	130
111	573	20.001360100906	130
111	607	20.001609605861	130
111	641	20.001910605861	130
111	675	20.002302605861	130
111	709	20.002616605861	130
111	743	20.002839605861	130
111	777	20.003114605861	130
111	811	20.003441605861	130
111	845	20.003820605861	130
111	879	20.004134605861	130
111	913	20.004461605861	130
111	947	20.004723605861	130
111	981	20.004972605861	130
111	1015	20.005182605861	130
111	1049	20.005431605861	130
111	1083	20.005706605861	130
111	1117	20.006098605861	130
111	1151	20.006503605861	130
111	1185	20.006908605861	130
112	397	20.000152615437	128
112	404	20.000152615437	128
112	421	20.000375650092	128
112	507	20.000887880966	128
112	535	20.001123950395	128
112	575	20.001360100906	128
112	609	20.001609605861	128
112	643	20.001910605861	128
112	677	20.002302605861	128
112	711	20.002616605861	128
112	745	20.002839605861	128
112	779	20.003114605861	128
112	813	20.003441605861	128
112	847	20.003820605861	128
112	881	20.004134605861	128
112	915	20.004461605861	128
112	949	20.004723605861	128
112	983	20.004972605861	128
112	1017	20.005182605861	128
112	1051	20.005431605861	128
112	1085	20.005706605861	128
112	1119	20.006098605861	128
112	1153	20.006503605861	128
112	1187	20.006908605861	128
113	398	20.000152615437	108
113	406	20.000152615437	108
113	422	20.000375650092	108
113	508	20.000887880966	108
113	536	20.001123950395	108
113	576	20.001360100906	108
113	610	20.001609605861	108
113	644	20.001910605861	108
113	678	20.002302605861	108
113	712	20.002616605861	108
113	746	20.002839605861	108
113	780	20.003114605861	108
113	814	20.003441605861	108
113	848	20.003820605861	108
113	882	20.004134605861	108
113	916	20.004461605861	108
113	950	20.004723605861	108
113	984	20.004972605861	108
113	1018	20.005182605861	108
113	1052	20.005431605861	108
113	1086	20.005706605861	108
113	1120	20.006098605861	108
113	1154	20.006503605861	108
113	1188	20.006908605861	108
114	398	20.000152615437	1
114	406	20.000152615437	2
114	422	20.000375650092	3
114	508	20.000887880966	4
114	536	20.001123950395	5
114	576	20.001360100906	6
114	610	20.001609605861	7
114	644	20.001910605861	8
114	678	20.002302605861	9
114	712	20.002616605861	10
114	746	20.002839605861	11
114	780	20.003114605861	12
114	814	20.003441605861	13
114	848	20.003820605861	14
114	882	20.004134605861	15
114	916	20.004461605861	16
114	950	20.004723605861	17
114	984	20.004972605861	18
114	1018	20.005182605861	19
114	1052	20.005431605861	20
114	1086	20.005706605861	21
114	1120	20.006098605861	22
114	1154	20.006503605861	23
114	1188	20.006908605861	24
115	399	20.000152615437	100
115	407	20.000152615437	100
115	423	20.000375650092	100
115	509	20.000887880966	100
115	537	20.001123950395	100
115	577	20.001360100906	100
115	611	20.001609605861	100
115	645	20.001910605861	100
115	679	20.002302605861	100
115	713	20.002616605861	100
115	747	20.002839605861	100
115	781	20.003114605861	100
115	815	20.003441605861	100
115	849	20.003820605861	100
115	883	20.004134605861	100
115	917	20.004461605861	100
115	951	20.004723605861	100
115	985	20.004972605861	100
115	1019	20.005182605861	100
115	1053	20.005431605861	100
115	1087	20.005706605861	100
115	1121	20.006098605861	100
115	1155	20.006503605861	100
115	1189	20.006908605861	100
116	399	0.1	0
116	399	0.2	0
116	399	0.3	0
116	399	0.4	0
116	399	0.5	0
116	399	0.6	0
116	399	0.7	0
116	399	0.8	0
116	399	0.9	0
116	399	1	0
116	399	1.1	0
116	399	1.2	0
116	399	1.3	0
116	399	1.4	0
116	399	1.5	0
116	399	1.6	0
116	399	1.7	0
116	399	1.8	0
116	399	1.9	0
116	399	2	0
116	399	2.1	0
116	399	2.2	0
116	399	2.3	0
116	399	2.4	0
116	399	2.5	0
116	399	2.6	0
116	399	2.7	0
116	399	2.8	0
116	399	2.9	0
116	399	3	0
116	399	3.1	0
116	399	3.2	0
116	399	3.3	0
116	399	3.4	0
116	399	3.5	0
116	399	3.6	0
116	399	3.7	0
116	399	3.8	0
116	399	3.9	0
116	399	4	0
116	399	4.1	0
116	399	4.2	0
116	399	4.3	0
116	399	4.4	0
116	399	4.5	0
116	399	4.6	0
116	399	4.7	0
116	399	4.8	0
116	399	4.9	0
116	399	5	0
116	399	5.1	0
116	399	5.2	0
116	399	5.3	0
116	399	5.4	0
116	399	5.5	0
116	399	5.6	0
116	399	5.7	0
116	399	5.8	0
116	399	5.9	0
116	399	6	0
116	399	6.1	0
116	399	6.2	0
116	399	6.3	0
116	399	6.4	0
116	399	6.5	0
116	399	6.6	0
116	399	6.7	0
116	399	6.8	0
116	399	6.9	0
116	399	7	0
116	399	7.1	0
116	399	7.2	0
116	399	7.3	0
116	399	7.4	0
116	399	7.5	0
116	399	7.6	0
116	399	7.7	0
116	399	7.8	0
116	399	7.9	0
116	399	8	0
116	399	8.1	0
116	399	8.2	0
116	399	8.3	0
116	399	8.4	0
116	399	8.5	0
116	399	8.6	0
116	399	8.7	0
116	399	8.8	0
116	399	8.9	0
116	399	9	0
116	399	9.1	0
116	399	9.2	0
116	399	9.3	0
116	399	9.4	0
116	399	9.5	0
116	399	9.6	0
116	399	9.7	0
116	399	9.8	0
116	399	9.9	0
116	399	10	0
116	399	10.1	0
116	399	10.2	0
116	399	10.3	0
116	399	10.4	0
116	399	10.5	0
116	399	10.6	0
116	399	10.7	0
116	399	10.8	0
116	399	10.9	0
116	399	11	0
116	399	11.1	0
116	399	11.2	0
116	399	11.3	0
116	399	11.4	0
116	399	11.5	0
116	399	11.6	0
116	399	11.7	0
116	399	11.8	0
116	399	11.9	0
116	399	12	0
116	399	12.1	0
116	399	12.2	0
116	399	12.3	0
116	399	12.4	0
116	399	12.5	0
116	399	12.6	0
116	399	12.7	0
116	399	12.8	0
116	399	12.9	0
116	399	13	0
116	399	13.1	0
116	399	13.2	0
116	399	13.3	0
116	399	13.4	0
116	399	13.5	0
116	399	13.6	0
116	399	13.7	0
116	399	13.8	0
116	399	13.9	0
116	399	14	0
116	399	14.1	0
116	399	14.2	0
116	399	14.3	0
116	399	14.4	0
116	399	14.5	0
116	399	14.6	0
116	399	14.7	0
116	399	14.8	0
116	399	14.9	0
116	399	15	0
116	399	15.1	0
116	399	15.2	0
116	399	15.3	0
116	399	15.4	0
116	399	15.5	0
116	399	15.6	0
116	399	15.7	0
116	399	15.8	0
116	399	15.9	0
116	399	16	0
116	399	16.1	0
116	399	16.2	0
116	399	16.3	0
116	399	16.4	0
116	399	16.5	0
116	399	16.6	0
116	399	16.7	0
116	399	16.8	0
116	399	16.9	0
116	399	17	0
116	399	17.1	0
116	399	17.2	0
116	399	17.3	0
116	399	17.4	0
116	399	17.5	0
116	399	17.6	0
116	399	17.7	0
116	399	17.8	0
116	399	17.9	0
116	399	18	0
116	399	18.1	0
116	399	18.2	0
116	399	18.3	0
116	399	18.4	0
116	399	18.5	0
116	399	18.6	0
116	399	18.7	0
116	399	18.8	0
116	399	18.9	0
116	399	19	0
116	399	19.1	0
116	399	19.2	0
116	399	19.3	0
116	399	19.4	0
116	399	19.5	0
116	399	19.6	0
116	399	19.7	0
116	399	19.8	0
116	399	19.9	0
116	399	20	0
116	1615	20.1	192000
116	1615	20.2	0
116	1615	20.3	0
116	1615	20.4	0
116	1615	20.5	0
116	1615	20.6	0
116	1615	20.7	0
116	1615	20.8	0
116	1615	20.9	0
116	1615	21	0
116	1615	21.1	0
116	1615	21.2	0
116	1615	21.3	0
116	1615	21.4	0
116	1615	21.5	0
116	1615	21.6	0
116	1615	21.7	0
116	1615	21.8	0
116	1615	21.9	0
116	1615	22	0
116	1615	22.1	0
116	1615	22.2	0
116	1615	22.3	0
116	1615	22.4	0
116	1615	22.5	0
116	1615	22.6	0
116	1615	22.7	0
116	1615	22.8	0
116	1615	22.9	0
116	1615	23	0
116	1615	23.1	0
116	1615	23.2	0
116	1615	23.3	0
116	1615	23.4	0
116	1615	23.5	0
116	1615	23.6	0
116	1615	23.7	0
116	1615	23.8	0
116	1615	23.9	0
116	1615	24	0
116	1615	24.1	0
116	1615	24.2	0
116	1615	24.3	0
116	1615	24.4	0
116	1615	24.5	0
116	1615	24.6	0
116	1615	24.7	0
116	1615	24.8	0
116	1615	24.9	0
116	1615	25	0
116	1615	25.1	0
116	1615	25.2	0
116	1615	25.3	0
116	1615	25.4	0
116	1615	25.5	0
116	1615	25.6	0
116	1615	25.7	0
116	1615	25.8	0
116	1615	25.9	0
116	1615	26	0
116	1615	26.1	0
116	1615	26.2	0
116	1615	26.3	0
116	1615	26.4	0
116	1615	26.5	0
116	1615	26.6	0
116	1615	26.7	0
116	1615	26.8	0
116	1615	26.9	0
116	1615	27	0
116	1615	27.1	0
116	1615	27.2	0
116	1615	27.3	0
116	1615	27.4	0
116	1615	27.5	0
116	1615	27.6	0
116	1615	27.7	0
116	1615	27.8	0
116	1615	27.9	0
116	1615	28	0
116	1615	28.1	0
116	1615	28.2	0
116	1615	28.3	0
116	1615	28.4	0
116	1615	28.5	0
116	1615	28.6	0
116	1615	28.7	0
116	1615	28.8	0
116	1615	28.9	0
116	1615	29	0
116	1615	29.1	0
116	1615	29.2	0
116	1615	29.3	0
116	1615	29.4	0
116	1615	29.5	0
116	1615	29.6	0
116	1615	29.7	0
116	1615	29.8	0
116	1615	29.9	0
116	1615	30	0
116	1615	30.1	0
116	1615	30.2	0
116	1615	30.3	0
116	1615	30.4	0
116	1615	30.5	0
116	1615	30.6	0
116	1615	30.7	0
116	1615	30.8	0
116	1615	30.9	0
116	1615	31	0
116	1615	31.1	0
116	1615	31.2	0
116	1615	31.3	0
116	1615	31.4	0
116	1615	31.5	0
116	1615	31.6	0
116	1615	31.7	0
116	1615	31.8	0
116	1615	31.9	0
116	1615	32	0
116	1615	32.1	0
116	1615	32.2	0
116	1615	32.3	0
116	1615	32.4	0
116	1615	32.5	0
116	1615	32.6	0
116	1615	32.7	0
116	1615	32.8	0
116	1615	32.9	0
116	1615	33	0
116	1615	33.1	0
116	1615	33.2	0
116	1615	33.3	0
116	1615	33.4	0
116	1615	33.5	0
116	1615	33.6	0
116	1615	33.7	0
116	1615	33.8	0
116	1615	33.9	0
116	1615	34	0
116	1615	34.1	0
116	1615	34.2	0
116	1615	34.3	0
116	1615	34.4	0
116	1615	34.5	0
116	1615	34.6	0
116	1615	34.7	0
116	1615	34.8	0
116	1615	34.9	0
116	1615	35	0
116	1615	35.1	0
116	1615	35.2	0
116	1615	35.3	0
116	1615	35.4	0
116	1615	35.5	0
116	1615	35.6	0
116	1615	35.7	0
116	1615	35.8	0
116	1615	35.9	0
116	1615	36	0
116	1615	36.1	0
116	1615	36.2	0
116	1615	36.3	0
116	1615	36.4	0
116	1615	36.5	0
116	1615	36.6	0
116	1615	36.7	0
116	1615	36.8	0
116	1615	36.9	0
116	1615	37	0
116	1615	37.1	0
116	1615	37.2	0
116	1615	37.3	0
116	1615	37.4	0
116	1615	37.5	0
116	1615	37.6	0
116	1615	37.7	0
116	1615	37.8	0
116	1615	37.9	0
116	1615	38	0
116	1615	38.1	0
116	1615	38.2	0
116	1615	38.3	0
116	1615	38.4	0
116	1615	38.5	0
116	1615	38.6	0
116	1615	38.7	0
116	1615	38.8	0
116	1615	38.9	0
116	1615	39	0
116	1615	39.1	0
116	1615	39.2	0
116	1615	39.3	0
116	1615	39.4	0
116	1615	39.5	0
116	1615	39.6	0
116	1615	39.7	0
116	1615	39.8	0
116	1615	39.9	0
116	1615	40	0
116	1615	40.1	0
116	1615	40.2	0
116	1615	40.3	0
116	1615	40.4	0
116	1615	40.5	0
116	1615	40.6	0
116	1615	40.7	0
116	1615	40.8	0
116	1615	40.9	0
116	1615	41	0
116	1615	41.1	0
116	1615	41.2	0
116	1615	41.3	0
116	1615	41.4	0
116	1615	41.5	0
116	1615	41.6	0
116	1615	41.7	0
116	1615	41.8	0
116	1615	41.9	0
116	1615	42	0
116	1615	42.1	0
116	1615	42.2	0
116	1615	42.3	0
116	1615	42.4	0
116	1615	42.5	0
116	1615	42.6	0
116	1615	42.7	0
116	1615	42.8	0
116	1615	42.9	0
116	1615	43	0
116	1615	43.1	0
116	1615	43.2	0
116	1615	43.3	0
116	1615	43.4	0
116	1615	43.5	0
116	1615	43.6	0
116	1615	43.7	0
116	1615	43.8	0
116	1615	43.9	0
116	1615	44	0
116	1615	44.1	0
116	1615	44.2	0
116	1615	44.3	0
116	1615	44.4	0
116	1615	44.5	0
116	1615	44.6	0
116	1615	44.7	0
116	1615	44.8	0
116	1615	44.9	0
116	1615	45	0
116	1615	45.1	0
116	1615	45.2	0
116	1615	45.3	0
116	1615	45.4	0
116	1615	45.5	0
116	1615	45.6	0
116	1615	45.7	0
116	1615	45.8	0
116	1615	45.9	0
116	1615	46	0
116	1615	46.1	0
116	1615	46.2	0
116	1615	46.3	0
116	1615	46.4	0
116	1615	46.5	0
116	1615	46.6	0
116	1615	46.7	0
116	1615	46.8	0
116	1615	46.9	0
116	1615	47	0
116	1615	47.1	0
116	1615	47.2	0
116	1615	47.3	0
116	1615	47.4	0
116	1615	47.5	0
116	1615	47.6	0
116	1615	47.7	0
116	1615	47.8	0
116	1615	47.9	0
116	1615	48	0
116	1615	48.1	0
116	1615	48.2	0
116	1615	48.3	0
116	1615	48.4	0
116	1615	48.5	0
116	1615	48.6	0
116	1615	48.7	0
116	1615	48.8	0
116	1615	48.9	0
116	1615	49	0
116	1615	49.1	0
116	1615	49.2	0
116	1615	49.3	0
116	1615	49.4	0
116	1615	49.5	0
116	1615	49.6	0
116	1615	49.7	0
116	1615	49.8	0
116	1615	49.9	0
116	1615	50	0
116	1615	50.1	0
116	1615	50.2	0
116	1615	50.3	0
116	1615	50.4	0
116	1615	50.5	0
116	1615	50.6	0
116	1615	50.7	0
116	1615	50.8	0
116	1615	50.9	0
116	1615	51	0
116	1615	51.1	0
116	1615	51.2	0
116	1615	51.3	0
116	1615	51.4	0
116	1615	51.5	0
116	1615	51.6	0
116	1615	51.7	0
116	1615	51.8	0
116	1615	51.9	0
116	1615	52	0
116	1615	52.1	0
116	1615	52.2	0
116	1615	52.3	0
116	1615	52.4	0
116	1615	52.5	0
116	1615	52.6	0
116	1615	52.7	0
116	1615	52.8	0
116	1615	52.9	0
116	1615	53	0
116	1615	53.1	0
116	1615	53.2	0
116	1615	53.3	0
116	1615	53.4	0
116	1615	53.5	0
116	1615	53.6	0
116	1615	53.7	0
116	1615	53.8	0
116	1615	53.9	0
116	1615	54	0
116	1615	54.1	0
116	1615	54.2	0
116	1615	54.3	0
116	1615	54.4	0
116	1615	54.5	0
116	1615	54.6	0
116	1615	54.7	0
116	1615	54.8	0
116	1615	54.9	0
116	1615	55	0
116	1615	55.1	0
116	1615	55.2	0
116	1615	55.3	0
116	1615	55.4	0
116	1615	55.5	0
116	1615	55.6	0
116	1615	55.7	0
116	1615	55.8	0
116	1615	55.9	0
116	1615	56	0
116	1615	56.1	0
116	1615	56.2	0
116	1615	56.3	0
116	1615	56.4	0
116	1615	56.5	0
116	1615	56.6	0
116	1615	56.7	0
116	1615	56.8	0
116	1615	56.9	0
116	1615	57	0
116	1615	57.1	0
116	1615	57.2	0
116	1615	57.3	0
116	1615	57.4	0
116	1615	57.5	0
116	1615	57.6	0
116	1615	57.7	0
116	1615	57.8	0
116	1615	57.9	0
116	1615	58	0
116	1615	58.1	0
116	1615	58.2	0
116	1615	58.3	0
116	1615	58.4	0
116	1615	58.5	0
116	1615	58.6	0
116	1615	58.7	0
116	1615	58.8	0
116	1615	58.9	0
116	1615	59	0
116	1615	59.1	0
116	1615	59.2	0
116	1615	59.3	0
116	1615	59.4	0
116	1615	59.5	0
116	1615	59.6	0
116	1615	59.7	0
116	1615	59.8	0
116	1615	59.9	0
116	1615	60	0
117	399	20.000152615437	0.000152615437
117	407	20.000152615437	0.000152615437
117	423	20.000375650092	0.000375650092
117	509	20.000887880966	0.000887880966
117	537	20.001123950395	0.001123950395
117	577	20.001360100906	0.001360100906
117	611	20.001609605861	0.001609605861
117	645	20.001910605861	0.001910605861
117	679	20.002302605861	0.002302605861
117	713	20.002616605861	0.002616605861
117	747	20.002839605861	0.002839605861
117	781	20.003114605861	0.003114605861
117	815	20.003441605861	0.003441605861
117	849	20.003820605861	0.003820605861
117	883	20.004134605861	0.004134605861
117	917	20.004461605861	0.004461605861
117	951	20.004723605861	0.004723605861
117	985	20.004972605861	0.004972605861
117	1019	20.005182605861	0.005182605861
117	1053	20.005431605861	0.005431605861
117	1087	20.005706605861	0.005706605861
117	1121	20.006098605861	0.006098605861
117	1155	20.006503605861	0.006503605861
117	1189	20.006908605861	0.006908605861
118	399	20.000152615437	100
119	400	20.000152615437	108
120	402	20.000152615437	128
121	402	20.000152615437	128
122	405	20.000152615437	130
123	405	20.000152615437	158
124	405	20.000152615437	1
124	443	20.000498650092	0
125	405	20.000152615437	6
126	405	20.000152615437	1
126	412	20.000223650092	0
126	418	20.000375650092	1
126	442	20.000498650092	0
127	409	20.000223511809	158
128	409	20.000223511809	7.1e-005
129	409	20.000223511809	1
129	416	20.000375511809	0
130	409	20.000223511809	12000000
131	409	20.000223511809	158
132	409	20.000223511809	1
132	416	20.000375511809	0
133	410	20.000223511809	1
133	411	20.000223511809	2
133	416	20.000375511809	1
133	417	20.000375511809	0
134	416	20.000375511809	158
135	416	20.000375511809	158
136	416	20.000375511809	158
137	416	20.000375511809	0.000152
138	437	20.000376023618	158
138	471	20.000651265529	158
138	539	20.001123972091	158
138	561	20.001359990424	158
139	437	20.000376023618	158
139	471	20.000651265529	158
139	539	20.001123972091	158
139	561	20.001359990424	158
140	437	20.000376023618	158
140	471	20.000651265529	158
140	539	20.001123972091	158
140	561	20.001359990424	158
141	437	20.000376023618	158
141	471	20.000651265529	158
141	539	20.001123972091	158
141	561	20.001359990424	158
142	437	20.000376023618	130
142	471	20.000651265529	130
142	539	20.001123972091	130
142	561	20.001359990424	130
143	443	20.000498650092	158
144	443	20.000498650092	0.000346034655
145	443	20.000498650092	1
145	450	20.000650650092	0
146	443	20.000498650092	12000000
147	443	20.000498650092	158
148	443	20.000498650092	1
148	450	20.000650650092	0
149	444	20.000498650092	1
149	445	20.000498650092	2
149	450	20.000650650092	1
149	451	20.000650650092	0
150	450	20.000650650092	158
151	450	20.000650650092	158
152	450	20.000650650092	158
153	450	20.000650650092	0.000152
154	511	20.00097161881	158
155	511	20.00097161881	0.000819265529
156	511	20.00097161881	1
156	518	20.00112361881	0
157	511	20.00097161881	12000000
158	511	20.00097161881	158
159	511	20.00097161881	1
159	518	20.00112361881	0
160	512	20.00097161881	1
160	513	20.00097161881	2
160	518	20.00112361881	1
160	519	20.00112361881	0
161	518	20.00112361881	158
162	518	20.00112361881	158
163	518	20.00112361881	158
164	518	20.00112361881	0.000152
165	545	20.001207731963	158
166	545	20.001207731963	0.001055473502
167	545	20.001207731963	1
167	552	20.001359731963	0
168	545	20.001207731963	12000000
169	545	20.001207731963	158
170	545	20.001207731963	1
170	552	20.001359731963	0
171	546	20.001207731963	1
171	547	20.001207731963	2
171	552	20.001359731963	1
171	553	20.001359731963	0
172	552	20.001359731963	158
173	552	20.001359731963	158
174	552	20.001359731963	158
175	552	20.001359731963	0.000152

