version 2
run NoAttacks-0-20240429-20:09:39-22340
attr configname NoAttacks
attr datetime 20240429-20:09:39
attr experiment NoAttacks
attr inifile omnetpp.ini
attr iterationvars ""
attr iterationvarsf ""
attr measurement ""
attr network Scenario
attr processid 22340
attr repetition 0
attr replication #0
attr resultdir results
attr runnumber 0
attr seedset 0
param *.node[*].numApps 1
param *.node[*].app[0].typename "\"vanetattackpackage.veins_inet.AttackTestApp\""
param *.node[*].app[0].interface "\"wlan0\""
param *.node[*].wlan[0].opMode "\"p\""
param *.node[*].wlan[0].radio.typename "\"Ieee80211DimensionalRadio\""
param *.node[*].wlan[0].radio.bandName "\"5.9 GHz\""
param *.node[*].wlan[0].radio.channelNumber 3
param *.node[*].wlan[0].radio.transmitter.power 20mW
param *.node[*].wlan[0].radio.bandwidth "10 MHz"
param *.node[*].wlan[*].radio.antenna.mobility.typename "\"AttachedMobility\""
param *.node[*].wlan[*].radio.antenna.mobility.mobilityModule "\"^.^.^.^.mobility\""
param *.node[*].wlan[*].radio.antenna.mobility.offsetX -2.5m
param *.node[*].wlan[*].radio.antenna.mobility.offsetZ 1.5m
param *.node[*].wlan[*].radio.antenna.mobility.constraintAreaMinX 0m
param *.node[*].wlan[*].radio.antenna.mobility.constraintAreaMaxX 0m
param *.node[*].wlan[*].radio.antenna.mobility.constraintAreaMinY 0m
param *.node[*].wlan[*].radio.antenna.mobility.constraintAreaMaxY 0m
param *.node[*].wlan[*].radio.antenna.mobility.constraintAreaMinZ 0m
param *.node[*].wlan[*].radio.antenna.mobility.constraintAreaMaxZ 0m
param *.node[*].ipv4.configurator.typename "\"HostAutoConfigurator\""
param *.node[*].ipv4.configurator.interfaces "\"wlan0\""
param *.node[*].ipv4.configurator.mcastGroups "\"224.0.0.1\""
param *.node[*].mobility.typename "\"VeinsInetMobility\""
param *.manager.updateInterval 0.1s
param *.manager.host "\"localhost\""
param *.manager.port 9999
param *.manager.autoShutdown true
param *.manager.launchConfig "xmldoc(\"motorway.launchd.xml\")"
param *.manager.moduleType "\"vanetattackpackage.veins_inet.VeinsInetAttackingCar\""

vector 0 Scenario.node[0].wlan[0].radio radioMode:vector ETV
attr interpolationmode sample-hold
attr source radioModeChanged
attr title "Radio mode, vector"
vector 1 Scenario.node[0].wlan[0].radio radioChannel:vector ETV
attr interpolationmode sample-hold
attr source radioChannelChanged
attr title "Radio channel, vector"
vector 2 Scenario.node[0].wlan[0].radio receptionState:vector ETV
attr interpolationmode sample-hold
attr source receptionStateChanged
attr title "Radio reception state, vector"
vector 3 Scenario.node[0].wlan[0].mac.dcf.recoveryProcedure contentionWindowChanged:vector ETV
attr interpolationmode sample-hold
attr title "contention window, vector"
vector 4 Scenario.node[1].wlan[0].radio radioMode:vector ETV
attr interpolationmode sample-hold
attr source radioModeChanged
attr title "Radio mode, vector"
vector 5 Scenario.node[1].wlan[0].radio radioChannel:vector ETV
attr interpolationmode sample-hold
attr source radioChannelChanged
attr title "Radio channel, vector"
vector 6 Scenario.node[1].wlan[0].radio receptionState:vector ETV
attr interpolationmode sample-hold
attr source receptionStateChanged
attr title "Radio reception state, vector"
vector 7 Scenario.node[1].wlan[0].mac.dcf.recoveryProcedure contentionWindowChanged:vector ETV
attr interpolationmode sample-hold
attr title "contention window, vector"
vector 8 Scenario.node[2].wlan[0].radio radioMode:vector ETV
attr interpolationmode sample-hold
attr source radioModeChanged
attr title "Radio mode, vector"
vector 9 Scenario.node[2].wlan[0].radio radioChannel:vector ETV
attr interpolationmode sample-hold
attr source radioChannelChanged
attr title "Radio channel, vector"
vector 10 Scenario.node[2].wlan[0].radio receptionState:vector ETV
attr interpolationmode sample-hold
attr source receptionStateChanged
attr title "Radio reception state, vector"
vector 11 Scenario.node[2].wlan[0].mac.dcf.recoveryProcedure contentionWindowChanged:vector ETV
attr interpolationmode sample-hold
attr title "contention window, vector"
vector 12 Scenario.node[3].wlan[0].radio radioMode:vector ETV
attr interpolationmode sample-hold
attr source radioModeChanged
attr title "Radio mode, vector"
vector 13 Scenario.node[3].wlan[0].radio radioChannel:vector ETV
attr interpolationmode sample-hold
attr source radioChannelChanged
attr title "Radio channel, vector"
vector 14 Scenario.node[3].wlan[0].radio receptionState:vector ETV
attr interpolationmode sample-hold
attr source receptionStateChanged
attr title "Radio reception state, vector"
vector 15 Scenario.node[3].wlan[0].mac.dcf.recoveryProcedure contentionWindowChanged:vector ETV
attr interpolationmode sample-hold
attr title "contention window, vector"
vector 16 Scenario.node[4].wlan[0].radio radioMode:vector ETV
attr interpolationmode sample-hold
attr source radioModeChanged
attr title "Radio mode, vector"
vector 17 Scenario.node[4].wlan[0].radio radioChannel:vector ETV
attr interpolationmode sample-hold
attr source radioChannelChanged
attr title "Radio channel, vector"
vector 18 Scenario.node[4].wlan[0].radio receptionState:vector ETV
attr interpolationmode sample-hold
attr source receptionStateChanged
attr title "Radio reception state, vector"
vector 19 Scenario.node[4].wlan[0].mac.dcf.recoveryProcedure contentionWindowChanged:vector ETV
attr interpolationmode sample-hold
attr title "contention window, vector"
vector 20 Scenario.node[0].app[0] packetSent:vector(packetBytes) ETV
attr interpolationmode none
attr source packetSent
attr title "packets sent, vector(packetBytes)"
vector 21 Scenario.node[0].udp packetSent:vector(packetBytes) ETV
attr interpolationmode none
attr source packetSent
attr title "packets sent, vector(packetBytes)"
vector 22 Scenario.node[0].lo[0].lo rcvdPkFromHl:vector(packetBytes) ETV
attr interpolationmode none
attr source packetReceivedFromUpper
attr title "packets received from higher layer, vector(packetBytes)"
vector 23 Scenario.node[0].lo[0].lo passedUpPk:vector(packetBytes) ETV
attr interpolationmode none
attr source packetSentToUpper
attr title "packets passed to higher layer, vector(packetBytes)"
vector 24 Scenario.node[0].ipv4.ip totalPacketsReceieved:vector(packetBytes) ETV
attr interpolationmode none
attr source messageReceived
attr title "packets received from network, vector(packetBytes)"
vector 25 Scenario.node[0].wlan[0].mac packetReceivedFromUpper:vector(packetBytes) ETV
attr interpolationmode none
attr title "packets received from upper layer, vector(packetBytes)"
vector 26 Scenario.node[0].wlan[0].mac.dcf.channelAccess.pendingQueue packetPushed:vector(packetBytes) ETV
attr interpolationmode none
attr title "packet pushed, vector(packetBytes)"
vector 27 Scenario.node[0].wlan[0].mac.dcf.channelAccess.pendingQueue queueLength:vector ETV
attr interpolationmode sample-hold
attr source "count(packetPushed) - count(packetPopped) - count(packetRemoved) - count(packetDropped)"
attr title "queue length, vector"
vector 28 Scenario.node[0].wlan[0].mac.dcf.channelAccess.contention backoffPeriodGenerated:vector ETV
attr interpolationmode none
attr title "backoff periods, vector"
vector 29 Scenario.node[0].wlan[0].mac.dcf.channelAccess.contention backoffActive:vector ETV
attr interpolationmode sample-hold
attr source count(backoffStarted)-count(backoffStopped)
attr title "backoff active, vector"
vector 30 Scenario.node[0].udp packetReceived:vector(packetBytes) ETV
attr interpolationmode none
attr source packetReceived
attr title "packets received, vector(packetBytes)"
vector 31 Scenario.node[0].udp passedUpPk:vector(count) ETV
attr interpolationmode none
attr source packetSentToUpper
attr title "packets passed up, vector(count)"
vector 32 Scenario.node[0].app[0] packetReceived:vector(packetBytes) ETV
attr interpolationmode none
attr source packetReceived
attr title "packets received, vector(packetBytes)"
vector 33 Scenario.node[0].app[0] throughput:vector ETV
attr source throughput(packetReceived)
attr title "throughput, vector"
attr unit bps
vector 34 Scenario.node[0].app[0] rcvdPkLifetime:vector ETV
attr interpolationmode none
attr source dataAge(packetReceived)
attr title "received packet lifetime, vector"
attr unit s
vector 35 Scenario.node[0].wlan[0].mac.dcf.channelAccess.pendingQueue packetPopped:vector(packetBytes) ETV
attr interpolationmode none
attr title "packet popped, vector(packetBytes)"
vector 36 Scenario.node[0].wlan[0].mac.dcf.channelAccess.pendingQueue queueingTime:vector ETV
attr interpolationmode none
attr source queueingTime(packetPopped)
attr title "queueing times, vector"
attr unit s
vector 37 Scenario.node[0].wlan[0].mac.dcf.channelAccess.inProgressFrames queueLength:vector ETV
attr interpolationmode sample-hold
attr source "count(packetEnqueued) - count(packetDequeued)"
attr title "queue length, vector"
vector 38 Scenario.node[0].wlan[0].mac.dcf datarateSelected:vector ETV
attr interpolationmode none
attr title "datarates selected, vector"
vector 39 Scenario.node[0].wlan[0].mac packetSentToLower:vector(packetBytes) ETV
attr interpolationmode none
attr title "packets sent to lower layer, vector(packetBytes)"
vector 40 Scenario.node[0].wlan[0].mac.dcf frameSequenceActive:vector ETV
attr interpolationmode sample-hold
attr source count(frameSequenceStarted)-count(frameSequenceFinished)
attr title "frame sequence active, vector"
vector 41 Scenario.node[0].wlan[0].radio transmissionState:vector ETV
attr interpolationmode sample-hold
attr source transmissionStateChanged
attr title "Radio transmission state, vector"
vector 42 Scenario.node[0].wlan[0].mac.dcf packetSentToPeer:vector(packetBytes) ETV
attr interpolationmode none
attr title "packets sent, vector(packetBytes)"
vector 43 Scenario.node[0].wlan[0].mac.dcf packetSentToPeerMulticast:vector(packetBytes) ETV
attr interpolationmode none
attr source ieee80211Multicast(packetSentToPeer)
attr title "packets sent: multicast, vector(packetBytes)"
vector 44 Scenario.node[0].wlan[0].mac.dcf packetSentToPeerWithoutRetry:vector(packetBytes) ETV
attr interpolationmode none
attr source ieee80211NotRetry(packetSentToPeer)
attr title "packets sent: without retry, vector(packetBytes)"
vector 45 Scenario.node[0].wlan[0].mac.dcf.channelAccess.inProgressFrames queueingTime:vector ETV
attr interpolationmode none
attr source queueingTime(packetDequeued)
attr title "queueing times, vector"
vector 46 Scenario.node[1].wlan[0].mac packetReceivedFromLower:vector(packetBytes) ETV
attr interpolationmode none
attr title "packets received from lower layer, vector(packetBytes)"
vector 47 Scenario.node[1].wlan[0].mac.dcf packetReceivedFromPeer:vector(packetBytes) ETV
attr interpolationmode none
attr title "packets received, vector(packetBytes)"
vector 48 Scenario.node[1].wlan[0].mac.dcf packetReceivedFromPeerMulticast:vector(packetBytes) ETV
attr interpolationmode none
attr source ieee80211Multicast(packetReceivedFromPeer)
attr title "packets received: multicast, vector(packetBytes)"
vector 49 Scenario.node[1].wlan[0].mac.dcf packetReceivedFromPeerWithoutRetry:vector(packetBytes) ETV
attr interpolationmode none
attr source ieee80211NotRetry(packetReceivedFromPeer)
attr title "packets received: without retry, vector(packetBytes)"
vector 50 Scenario.node[1].wlan[0].mac packetSentToUpper:vector(packetBytes) ETV
attr interpolationmode none
attr title "packets sent to upper layer, vector(packetBytes)"
vector 51 Scenario.node[1].ipv4.ip totalPacketsReceieved:vector(packetBytes) ETV
attr interpolationmode none
attr source messageReceived
attr title "packets received from network, vector(packetBytes)"
vector 52 Scenario.node[1].udp packetReceived:vector(packetBytes) ETV
attr interpolationmode none
attr source packetReceived
attr title "packets received, vector(packetBytes)"
vector 53 Scenario.node[1].udp passedUpPk:vector(count) ETV
attr interpolationmode none
attr source packetSentToUpper
attr title "packets passed up, vector(count)"
vector 54 Scenario.node[1].app[0] packetReceived:vector(packetBytes) ETV
attr interpolationmode none
attr source packetReceived
attr title "packets received, vector(packetBytes)"
vector 55 Scenario.node[1].app[0] throughput:vector ETV
attr source throughput(packetReceived)
attr title "throughput, vector"
attr unit bps
vector 56 Scenario.node[1].app[0] rcvdPkLifetime:vector ETV
attr interpolationmode none
attr source dataAge(packetReceived)
attr title "received packet lifetime, vector"
attr unit s
vector 57 Scenario.node[1].app[0] packetSent:vector(packetBytes) ETV
attr interpolationmode none
attr source packetSent
attr title "packets sent, vector(packetBytes)"
vector 58 Scenario.node[1].udp packetSent:vector(packetBytes) ETV
attr interpolationmode none
attr source packetSent
attr title "packets sent, vector(packetBytes)"
vector 59 Scenario.node[1].lo[0].lo rcvdPkFromHl:vector(packetBytes) ETV
attr interpolationmode none
attr source packetReceivedFromUpper
attr title "packets received from higher layer, vector(packetBytes)"
vector 60 Scenario.node[1].lo[0].lo passedUpPk:vector(packetBytes) ETV
attr interpolationmode none
attr source packetSentToUpper
attr title "packets passed to higher layer, vector(packetBytes)"
vector 61 Scenario.node[1].wlan[0].mac packetReceivedFromUpper:vector(packetBytes) ETV
attr interpolationmode none
attr title "packets received from upper layer, vector(packetBytes)"
vector 62 Scenario.node[1].wlan[0].mac.dcf.channelAccess.pendingQueue packetPushed:vector(packetBytes) ETV
attr interpolationmode none
attr title "packet pushed, vector(packetBytes)"
vector 63 Scenario.node[1].wlan[0].mac.dcf.channelAccess.pendingQueue queueLength:vector ETV
attr interpolationmode sample-hold
attr source "count(packetPushed) - count(packetPopped) - count(packetRemoved) - count(packetDropped)"
attr title "queue length, vector"
vector 64 Scenario.node[1].wlan[0].mac.dcf.channelAccess.contention backoffPeriodGenerated:vector ETV
attr interpolationmode none
attr title "backoff periods, vector"
vector 65 Scenario.node[1].wlan[0].mac.dcf.channelAccess.contention backoffActive:vector ETV
attr interpolationmode sample-hold
attr source count(backoffStarted)-count(backoffStopped)
attr title "backoff active, vector"
vector 66 Scenario.node[2].wlan[0].mac packetReceivedFromLower:vector(packetBytes) ETV
attr interpolationmode none
attr title "packets received from lower layer, vector(packetBytes)"
vector 67 Scenario.node[2].wlan[0].mac.dcf packetReceivedFromPeer:vector(packetBytes) ETV
attr interpolationmode none
attr title "packets received, vector(packetBytes)"
vector 68 Scenario.node[2].wlan[0].mac.dcf packetReceivedFromPeerMulticast:vector(packetBytes) ETV
attr interpolationmode none
attr source ieee80211Multicast(packetReceivedFromPeer)
attr title "packets received: multicast, vector(packetBytes)"
vector 69 Scenario.node[2].wlan[0].mac.dcf packetReceivedFromPeerWithoutRetry:vector(packetBytes) ETV
attr interpolationmode none
attr source ieee80211NotRetry(packetReceivedFromPeer)
attr title "packets received: without retry, vector(packetBytes)"
vector 70 Scenario.node[2].wlan[0].mac packetSentToUpper:vector(packetBytes) ETV
attr interpolationmode none
attr title "packets sent to upper layer, vector(packetBytes)"
vector 71 Scenario.node[2].ipv4.ip totalPacketsReceieved:vector(packetBytes) ETV
attr interpolationmode none
attr source messageReceived
attr title "packets received from network, vector(packetBytes)"
vector 72 Scenario.node[2].udp packetReceived:vector(packetBytes) ETV
attr interpolationmode none
attr source packetReceived
attr title "packets received, vector(packetBytes)"
vector 73 Scenario.node[2].udp passedUpPk:vector(count) ETV
attr interpolationmode none
attr source packetSentToUpper
attr title "packets passed up, vector(count)"
vector 74 Scenario.node[2].app[0] packetReceived:vector(packetBytes) ETV
attr interpolationmode none
attr source packetReceived
attr title "packets received, vector(packetBytes)"
vector 75 Scenario.node[2].app[0] throughput:vector ETV
attr source throughput(packetReceived)
attr title "throughput, vector"
attr unit bps
vector 76 Scenario.node[2].app[0] rcvdPkLifetime:vector ETV
attr interpolationmode none
attr source dataAge(packetReceived)
attr title "received packet lifetime, vector"
attr unit s
vector 77 Scenario.node[2].app[0] packetSent:vector(packetBytes) ETV
attr interpolationmode none
attr source packetSent
attr title "packets sent, vector(packetBytes)"
vector 78 Scenario.node[2].udp packetSent:vector(packetBytes) ETV
attr interpolationmode none
attr source packetSent
attr title "packets sent, vector(packetBytes)"
vector 79 Scenario.node[2].lo[0].lo rcvdPkFromHl:vector(packetBytes) ETV
attr interpolationmode none
attr source packetReceivedFromUpper
attr title "packets received from higher layer, vector(packetBytes)"
vector 80 Scenario.node[2].lo[0].lo passedUpPk:vector(packetBytes) ETV
attr interpolationmode none
attr source packetSentToUpper
attr title "packets passed to higher layer, vector(packetBytes)"
vector 81 Scenario.node[2].wlan[0].mac packetReceivedFromUpper:vector(packetBytes) ETV
attr interpolationmode none
attr title "packets received from upper layer, vector(packetBytes)"
vector 82 Scenario.node[2].wlan[0].mac.dcf.channelAccess.pendingQueue packetPushed:vector(packetBytes) ETV
attr interpolationmode none
attr title "packet pushed, vector(packetBytes)"
vector 83 Scenario.node[2].wlan[0].mac.dcf.channelAccess.pendingQueue queueLength:vector ETV
attr interpolationmode sample-hold
attr source "count(packetPushed) - count(packetPopped) - count(packetRemoved) - count(packetDropped)"
attr title "queue length, vector"
vector 84 Scenario.node[2].wlan[0].mac.dcf.channelAccess.contention backoffPeriodGenerated:vector ETV
attr interpolationmode none
attr title "backoff periods, vector"
vector 85 Scenario.node[2].wlan[0].mac.dcf.channelAccess.contention backoffActive:vector ETV
attr interpolationmode sample-hold
attr source count(backoffStarted)-count(backoffStopped)
attr title "backoff active, vector"
vector 86 Scenario.node[3].wlan[0].mac packetReceivedFromLower:vector(packetBytes) ETV
attr interpolationmode none
attr title "packets received from lower layer, vector(packetBytes)"
vector 87 Scenario.node[3].wlan[0].mac.dcf packetReceivedFromPeer:vector(packetBytes) ETV
attr interpolationmode none
attr title "packets received, vector(packetBytes)"
vector 88 Scenario.node[3].wlan[0].mac.dcf packetReceivedFromPeerMulticast:vector(packetBytes) ETV
attr interpolationmode none
attr source ieee80211Multicast(packetReceivedFromPeer)
attr title "packets received: multicast, vector(packetBytes)"
vector 89 Scenario.node[3].wlan[0].mac.dcf packetReceivedFromPeerWithoutRetry:vector(packetBytes) ETV
attr interpolationmode none
attr source ieee80211NotRetry(packetReceivedFromPeer)
attr title "packets received: without retry, vector(packetBytes)"
vector 90 Scenario.node[3].wlan[0].mac packetSentToUpper:vector(packetBytes) ETV
attr interpolationmode none
attr title "packets sent to upper layer, vector(packetBytes)"
vector 91 Scenario.node[3].ipv4.ip totalPacketsReceieved:vector(packetBytes) ETV
attr interpolationmode none
attr source messageReceived
attr title "packets received from network, vector(packetBytes)"
vector 92 Scenario.node[3].udp packetReceived:vector(packetBytes) ETV
attr interpolationmode none
attr source packetReceived
attr title "packets received, vector(packetBytes)"
vector 93 Scenario.node[3].udp passedUpPk:vector(count) ETV
attr interpolationmode none
attr source packetSentToUpper
attr title "packets passed up, vector(count)"
vector 94 Scenario.node[3].app[0] packetReceived:vector(packetBytes) ETV
attr interpolationmode none
attr source packetReceived
attr title "packets received, vector(packetBytes)"
vector 95 Scenario.node[3].app[0] throughput:vector ETV
attr source throughput(packetReceived)
attr title "throughput, vector"
attr unit bps
vector 96 Scenario.node[3].app[0] rcvdPkLifetime:vector ETV
attr interpolationmode none
attr source dataAge(packetReceived)
attr title "received packet lifetime, vector"
attr unit s
vector 97 Scenario.node[3].app[0] packetSent:vector(packetBytes) ETV
attr interpolationmode none
attr source packetSent
attr title "packets sent, vector(packetBytes)"
vector 98 Scenario.node[3].udp packetSent:vector(packetBytes) ETV
attr interpolationmode none
attr source packetSent
attr title "packets sent, vector(packetBytes)"
vector 99 Scenario.node[3].lo[0].lo rcvdPkFromHl:vector(packetBytes) ETV
attr interpolationmode none
attr source packetReceivedFromUpper
attr title "packets received from higher layer, vector(packetBytes)"
vector 100 Scenario.node[3].lo[0].lo passedUpPk:vector(packetBytes) ETV
attr interpolationmode none
attr source packetSentToUpper
attr title "packets passed to higher layer, vector(packetBytes)"
vector 101 Scenario.node[3].wlan[0].mac packetReceivedFromUpper:vector(packetBytes) ETV
attr interpolationmode none
attr title "packets received from upper layer, vector(packetBytes)"
vector 102 Scenario.node[3].wlan[0].mac.dcf.channelAccess.pendingQueue packetPushed:vector(packetBytes) ETV
attr interpolationmode none
attr title "packet pushed, vector(packetBytes)"
vector 103 Scenario.node[3].wlan[0].mac.dcf.channelAccess.pendingQueue queueLength:vector ETV
attr interpolationmode sample-hold
attr source "count(packetPushed) - count(packetPopped) - count(packetRemoved) - count(packetDropped)"
attr title "queue length, vector"
vector 104 Scenario.node[3].wlan[0].mac.dcf.channelAccess.contention backoffPeriodGenerated:vector ETV
attr interpolationmode none
attr title "backoff periods, vector"
vector 105 Scenario.node[3].wlan[0].mac.dcf.channelAccess.contention backoffActive:vector ETV
attr interpolationmode sample-hold
attr source count(backoffStarted)-count(backoffStopped)
attr title "backoff active, vector"
vector 106 Scenario.node[4].wlan[0].mac packetReceivedFromLower:vector(packetBytes) ETV
attr interpolationmode none
attr title "packets received from lower layer, vector(packetBytes)"
vector 107 Scenario.node[4].wlan[0].mac.dcf packetReceivedFromPeer:vector(packetBytes) ETV
attr interpolationmode none
attr title "packets received, vector(packetBytes)"
vector 108 Scenario.node[4].wlan[0].mac.dcf packetReceivedFromPeerMulticast:vector(packetBytes) ETV
attr interpolationmode none
attr source ieee80211Multicast(packetReceivedFromPeer)
attr title "packets received: multicast, vector(packetBytes)"
vector 109 Scenario.node[4].wlan[0].mac.dcf packetReceivedFromPeerWithoutRetry:vector(packetBytes) ETV
attr interpolationmode none
attr source ieee80211NotRetry(packetReceivedFromPeer)
attr title "packets received: without retry, vector(packetBytes)"
vector 110 Scenario.node[4].wlan[0].mac packetSentToUpper:vector(packetBytes) ETV
attr interpolationmode none
attr title "packets sent to upper layer, vector(packetBytes)"
vector 111 Scenario.node[4].ipv4.ip totalPacketsReceieved:vector(packetBytes) ETV
attr interpolationmode none
attr source messageReceived
attr title "packets received from network, vector(packetBytes)"
vector 112 Scenario.node[4].udp packetReceived:vector(packetBytes) ETV
attr interpolationmode none
attr source packetReceived
attr title "packets received, vector(packetBytes)"
vector 113 Scenario.node[4].udp passedUpPk:vector(count) ETV
attr interpolationmode none
attr source packetSentToUpper
attr title "packets passed up, vector(count)"
vector 114 Scenario.node[4].app[0] packetReceived:vector(packetBytes) ETV
attr interpolationmode none
attr source packetReceived
attr title "packets received, vector(packetBytes)"
vector 115 Scenario.node[4].app[0] throughput:vector ETV
attr source throughput(packetReceived)
attr title "throughput, vector"
attr unit bps
vector 116 Scenario.node[4].app[0] rcvdPkLifetime:vector ETV
attr interpolationmode none
attr source dataAge(packetReceived)
attr title "received packet lifetime, vector"
attr unit s
vector 117 Scenario.node[4].app[0] packetSent:vector(packetBytes) ETV
attr interpolationmode none
attr source packetSent
attr title "packets sent, vector(packetBytes)"
vector 118 Scenario.node[4].udp packetSent:vector(packetBytes) ETV
attr interpolationmode none
attr source packetSent
attr title "packets sent, vector(packetBytes)"
vector 119 Scenario.node[4].lo[0].lo rcvdPkFromHl:vector(packetBytes) ETV
attr interpolationmode none
attr source packetReceivedFromUpper
attr title "packets received from higher layer, vector(packetBytes)"
vector 120 Scenario.node[4].lo[0].lo passedUpPk:vector(packetBytes) ETV
attr interpolationmode none
attr source packetSentToUpper
attr title "packets passed to higher layer, vector(packetBytes)"
vector 121 Scenario.node[4].wlan[0].mac packetReceivedFromUpper:vector(packetBytes) ETV
attr interpolationmode none
attr title "packets received from upper layer, vector(packetBytes)"
vector 122 Scenario.node[4].wlan[0].mac.dcf.channelAccess.pendingQueue packetPushed:vector(packetBytes) ETV
attr interpolationmode none
attr title "packet pushed, vector(packetBytes)"
vector 123 Scenario.node[4].wlan[0].mac.dcf.channelAccess.pendingQueue queueLength:vector ETV
attr interpolationmode sample-hold
attr source "count(packetPushed) - count(packetPopped) - count(packetRemoved) - count(packetDropped)"
attr title "queue length, vector"
vector 124 Scenario.node[4].wlan[0].mac.dcf.channelAccess.contention backoffPeriodGenerated:vector ETV
attr interpolationmode none
attr title "backoff periods, vector"
vector 125 Scenario.node[4].wlan[0].mac.dcf.channelAccess.contention backoffActive:vector ETV
attr interpolationmode sample-hold
attr source count(backoffStarted)-count(backoffStopped)
attr title "backoff active, vector"
vector 126 Scenario.node[3].wlan[0].mac.dcf.channelAccess.pendingQueue packetPopped:vector(packetBytes) ETV
attr interpolationmode none
attr title "packet popped, vector(packetBytes)"
vector 127 Scenario.node[3].wlan[0].mac.dcf.channelAccess.pendingQueue queueingTime:vector ETV
attr interpolationmode none
attr source queueingTime(packetPopped)
attr title "queueing times, vector"
attr unit s
vector 128 Scenario.node[3].wlan[0].mac.dcf.channelAccess.inProgressFrames queueLength:vector ETV
attr interpolationmode sample-hold
attr source "count(packetEnqueued) - count(packetDequeued)"
attr title "queue length, vector"
vector 129 Scenario.node[3].wlan[0].mac.dcf datarateSelected:vector ETV
attr interpolationmode none
attr title "datarates selected, vector"
vector 130 Scenario.node[3].wlan[0].mac packetSentToLower:vector(packetBytes) ETV
attr interpolationmode none
attr title "packets sent to lower layer, vector(packetBytes)"
vector 131 Scenario.node[3].wlan[0].mac.dcf frameSequenceActive:vector ETV
attr interpolationmode sample-hold
attr source count(frameSequenceStarted)-count(frameSequenceFinished)
attr title "frame sequence active, vector"
vector 132 Scenario.node[3].wlan[0].radio transmissionState:vector ETV
attr interpolationmode sample-hold
attr source transmissionStateChanged
attr title "Radio transmission state, vector"
vector 133 Scenario.node[3].wlan[0].mac.dcf packetSentToPeer:vector(packetBytes) ETV
attr interpolationmode none
attr title "packets sent, vector(packetBytes)"
vector 134 Scenario.node[3].wlan[0].mac.dcf packetSentToPeerMulticast:vector(packetBytes) ETV
attr interpolationmode none
attr source ieee80211Multicast(packetSentToPeer)
attr title "packets sent: multicast, vector(packetBytes)"
vector 135 Scenario.node[3].wlan[0].mac.dcf packetSentToPeerWithoutRetry:vector(packetBytes) ETV
attr interpolationmode none
attr source ieee80211NotRetry(packetSentToPeer)
attr title "packets sent: without retry, vector(packetBytes)"
vector 136 Scenario.node[3].wlan[0].mac.dcf.channelAccess.inProgressFrames queueingTime:vector ETV
attr interpolationmode none
attr source queueingTime(packetDequeued)
attr title "queueing times, vector"
vector 137 Scenario.node[0].wlan[0].mac packetReceivedFromLower:vector(packetBytes) ETV
attr interpolationmode none
attr title "packets received from lower layer, vector(packetBytes)"
vector 138 Scenario.node[0].wlan[0].mac.dcf packetReceivedFromPeer:vector(packetBytes) ETV
attr interpolationmode none
attr title "packets received, vector(packetBytes)"
vector 139 Scenario.node[0].wlan[0].mac.dcf packetReceivedFromPeerMulticast:vector(packetBytes) ETV
attr interpolationmode none
attr source ieee80211Multicast(packetReceivedFromPeer)
attr title "packets received: multicast, vector(packetBytes)"
vector 140 Scenario.node[0].wlan[0].mac.dcf packetReceivedFromPeerWithoutRetry:vector(packetBytes) ETV
attr interpolationmode none
attr source ieee80211NotRetry(packetReceivedFromPeer)
attr title "packets received: without retry, vector(packetBytes)"
vector 141 Scenario.node[0].wlan[0].mac packetSentToUpper:vector(packetBytes) ETV
attr interpolationmode none
attr title "packets sent to upper layer, vector(packetBytes)"
vector 142 Scenario.node[4].wlan[0].mac.dcf.channelAccess.pendingQueue packetPopped:vector(packetBytes) ETV
attr interpolationmode none
attr title "packet popped, vector(packetBytes)"
vector 143 Scenario.node[4].wlan[0].mac.dcf.channelAccess.pendingQueue queueingTime:vector ETV
attr interpolationmode none
attr source queueingTime(packetPopped)
attr title "queueing times, vector"
attr unit s
vector 144 Scenario.node[4].wlan[0].mac.dcf.channelAccess.inProgressFrames queueLength:vector ETV
attr interpolationmode sample-hold
attr source "count(packetEnqueued) - count(packetDequeued)"
attr title "queue length, vector"
vector 145 Scenario.node[4].wlan[0].mac.dcf datarateSelected:vector ETV
attr interpolationmode none
attr title "datarates selected, vector"
vector 146 Scenario.node[4].wlan[0].mac packetSentToLower:vector(packetBytes) ETV
attr interpolationmode none
attr title "packets sent to lower layer, vector(packetBytes)"
vector 147 Scenario.node[4].wlan[0].mac.dcf frameSequenceActive:vector ETV
attr interpolationmode sample-hold
attr source count(frameSequenceStarted)-count(frameSequenceFinished)
attr title "frame sequence active, vector"
vector 148 Scenario.node[4].wlan[0].radio transmissionState:vector ETV
attr interpolationmode sample-hold
attr source transmissionStateChanged
attr title "Radio transmission state, vector"
vector 149 Scenario.node[4].wlan[0].mac.dcf packetSentToPeer:vector(packetBytes) ETV
attr interpolationmode none
attr title "packets sent, vector(packetBytes)"
vector 150 Scenario.node[4].wlan[0].mac.dcf packetSentToPeerMulticast:vector(packetBytes) ETV
attr interpolationmode none
attr source ieee80211Multicast(packetSentToPeer)
attr title "packets sent: multicast, vector(packetBytes)"
vector 151 Scenario.node[4].wlan[0].mac.dcf packetSentToPeerWithoutRetry:vector(packetBytes) ETV
attr interpolationmode none
attr source ieee80211NotRetry(packetSentToPeer)
attr title "packets sent: without retry, vector(packetBytes)"
vector 152 Scenario.node[4].wlan[0].mac.dcf.channelAccess.inProgressFrames queueingTime:vector ETV
attr interpolationmode none
attr source queueingTime(packetDequeued)
attr title "queueing times, vector"
vector 153 Scenario.node[2].wlan[0].mac.dcf.channelAccess.pendingQueue packetPopped:vector(packetBytes) ETV
attr interpolationmode none
attr title "packet popped, vector(packetBytes)"
vector 154 Scenario.node[2].wlan[0].mac.dcf.channelAccess.pendingQueue queueingTime:vector ETV
attr interpolationmode none
attr source queueingTime(packetPopped)
attr title "queueing times, vector"
attr unit s
vector 155 Scenario.node[2].wlan[0].mac.dcf.channelAccess.inProgressFrames queueLength:vector ETV
attr interpolationmode sample-hold
attr source "count(packetEnqueued) - count(packetDequeued)"
attr title "queue length, vector"
vector 156 Scenario.node[2].wlan[0].mac.dcf datarateSelected:vector ETV
attr interpolationmode none
attr title "datarates selected, vector"
vector 157 Scenario.node[2].wlan[0].mac packetSentToLower:vector(packetBytes) ETV
attr interpolationmode none
attr title "packets sent to lower layer, vector(packetBytes)"
vector 158 Scenario.node[2].wlan[0].mac.dcf frameSequenceActive:vector ETV
attr interpolationmode sample-hold
attr source count(frameSequenceStarted)-count(frameSequenceFinished)
attr title "frame sequence active, vector"
vector 159 Scenario.node[2].wlan[0].radio transmissionState:vector ETV
attr interpolationmode sample-hold
attr source transmissionStateChanged
attr title "Radio transmission state, vector"
vector 160 Scenario.node[2].wlan[0].mac.dcf packetSentToPeer:vector(packetBytes) ETV
attr interpolationmode none
attr title "packets sent, vector(packetBytes)"
vector 161 Scenario.node[2].wlan[0].mac.dcf packetSentToPeerMulticast:vector(packetBytes) ETV
attr interpolationmode none
attr source ieee80211Multicast(packetSentToPeer)
attr title "packets sent: multicast, vector(packetBytes)"
vector 162 Scenario.node[2].wlan[0].mac.dcf packetSentToPeerWithoutRetry:vector(packetBytes) ETV
attr interpolationmode none
attr source ieee80211NotRetry(packetSentToPeer)
attr title "packets sent: without retry, vector(packetBytes)"
vector 163 Scenario.node[2].wlan[0].mac.dcf.channelAccess.inProgressFrames queueingTime:vector ETV
attr interpolationmode none
attr source queueingTime(packetDequeued)
attr title "queueing times, vector"
vector 164 Scenario.node[1].wlan[0].mac.dcf.channelAccess.pendingQueue packetPopped:vector(packetBytes) ETV
attr interpolationmode none
attr title "packet popped, vector(packetBytes)"
vector 165 Scenario.node[1].wlan[0].mac.dcf.channelAccess.pendingQueue queueingTime:vector ETV
attr interpolationmode none
attr source queueingTime(packetPopped)
attr title "queueing times, vector"
attr unit s
vector 166 Scenario.node[1].wlan[0].mac.dcf.channelAccess.inProgressFrames queueLength:vector ETV
attr interpolationmode sample-hold
attr source "count(packetEnqueued) - count(packetDequeued)"
attr title "queue length, vector"
vector 167 Scenario.node[1].wlan[0].mac.dcf datarateSelected:vector ETV
attr interpolationmode none
attr title "datarates selected, vector"
vector 168 Scenario.node[1].wlan[0].mac packetSentToLower:vector(packetBytes) ETV
attr interpolationmode none
attr title "packets sent to lower layer, vector(packetBytes)"
vector 169 Scenario.node[1].wlan[0].mac.dcf frameSequenceActive:vector ETV
attr interpolationmode sample-hold
attr source count(frameSequenceStarted)-count(frameSequenceFinished)
attr title "frame sequence active, vector"
vector 170 Scenario.node[1].wlan[0].radio transmissionState:vector ETV
attr interpolationmode sample-hold
attr source transmissionStateChanged
attr title "Radio transmission state, vector"
vector 171 Scenario.node[1].wlan[0].mac.dcf packetSentToPeer:vector(packetBytes) ETV
attr interpolationmode none
attr title "packets sent, vector(packetBytes)"
vector 172 Scenario.node[1].wlan[0].mac.dcf packetSentToPeerMulticast:vector(packetBytes) ETV
attr interpolationmode none
attr source ieee80211Multicast(packetSentToPeer)
attr title "packets sent: multicast, vector(packetBytes)"
vector 173 Scenario.node[1].wlan[0].mac.dcf packetSentToPeerWithoutRetry:vector(packetBytes) ETV
attr interpolationmode none
attr source ieee80211NotRetry(packetSentToPeer)
attr title "packets sent: without retry, vector(packetBytes)"
vector 174 Scenario.node[1].wlan[0].mac.dcf.channelAccess.inProgressFrames queueingTime:vector ETV
attr interpolationmode none
attr source queueingTime(packetDequeued)
attr title "queueing times, vector"
0	12	1.1	0
0	12	1.1	0
0	12	1.1	2
0	236	20	3
0	243	20.000152	2
0	370	20.000735265529	3
0	377	20.000887265529	2
1	12	1.1	3
2	12	1.1	1
2	236	20	0
2	243	20.000152	1
2	307	20.000224023618	3
2	328	20.000376023618	1
2	341	20.000499265529	3
2	362	20.000651265529	1
2	370	20.000735265529	0
2	377	20.000887265529	1
2	409	20.000971972091	3
2	430	20.001123972091	1
2	441	20.001207990424	3
2	452	20.001359990424	1
3	12	1.1	15
4	25	2.1	0
4	25	2.1	0
4	25	2.1	2
4	438	20.001207731963	3
4	445	20.001359731963	2
5	25	2.1	3
6	25	2.1	1
6	238	20.000000258461	3
6	244	20.000152258461	1
6	305	20.000223803047	3
6	316	20.000375803047	1
6	340	20.000499019035	3
6	356	20.000651019035	1
6	372	20.00073552399	3
6	378	20.00088752399	1
6	406	20.000971731963	3
6	412	20.001123731963	1
6	438	20.001207731963	0
6	445	20.001359731963	1
7	25	2.1	15
8	38	3.1	0
8	38	3.1	0
8	38	3.1	2
8	404	20.00097161881	3
8	411	20.00112361881	2
9	38	3.1	3
10	38	3.1	1
10	239	20.000000353281	3
10	258	20.000152353281	1
10	306	20.000223809732	3
10	322	20.000375809732	1
10	339	20.000498981677	3
10	350	20.000650981677	1
10	373	20.00073561881	3
10	384	20.00088761881	1
10	404	20.00097161881	0
10	411	20.00112361881	1
10	440	20.001207845116	3
10	446	20.001359845116	1
11	38	3.1	15
12	61	5.1	0
12	61	5.1	0
12	61	5.1	2
12	302	20.000223511809	3
12	309	20.000375511809	2
13	61	5.1	3
14	61	5.1	1
14	240	20.000000511809	3
14	272	20.000152511809	1
14	302	20.000223511809	0
14	309	20.000375511809	1
14	338	20.000498788375	3
14	344	20.000650788375	1
14	374	20.000735777338	3
14	390	20.000887777338	1
14	407	20.000971916733	3
14	418	20.001123916733	1
14	442	20.001208023201	3
14	458	20.001360023201	1
15	61	5.1	15
16	74	6.1	0
16	74	6.1	0
16	74	6.1	2
16	336	20.000498650092	3
16	343	20.000650650092	2
17	74	6.1	3
18	74	6.1	1
18	241	20.000000615437	3
18	286	20.000152615437	1
18	304	20.000223650092	3
18	310	20.000375650092	1
18	336	20.000498650092	0
18	343	20.000650650092	1
18	375	20.000735880966	3
18	396	20.000887880966	1
18	408	20.000971950395	3
18	424	20.001123950395	1
18	443	20.001208100906	3
18	464	20.001360100906	1
19	74	6.1	15
20	216	20	100
20	225	20	100
21	218	20	108
21	226	20	108
22	220	20	128
22	228	20	128
23	220	20	128
23	228	20	128
24	222	20	128
24	230	20	128
24	331	20.000376023618	128
24	365	20.000651265529	128
24	433	20.001123972091	128
24	455	20.001359990424	128
25	223	20	130
25	231	20	130
26	223	20	158
26	231	20	158
27	223	20	1
27	231	20	2
27	235	20	1
27	235	20	0
28	223	20	8
28	242	20.000152	8
29	223	20	1
29	234	20	0
29	243	20.000152	1
29	307	20.000224023618	0
29	328	20.000376023618	1
29	341	20.000499265529	0
29	362	20.000651265529	1
29	368	20.000735265529	0
30	224	20	108
30	232	20	108
30	332	20.000376023618	108
30	366	20.000651265529	108
30	434	20.001123972091	108
30	456	20.001359990424	108
31	224	20	1
31	232	20	2
31	332	20.000376023618	3
31	366	20.000651265529	4
31	434	20.001123972091	5
31	456	20.001359990424	6
32	225	20	100
32	233	20	100
32	333	20.000376023618	100
32	367	20.000651265529	100
32	435	20.001123972091	100
32	457	20.001359990424	100
33	225	0.1	0
33	225	0.2	0
33	225	0.3	0
33	225	0.4	0
33	225	0.5	0
33	225	0.6	0
33	225	0.7	0
33	225	0.8	0
33	225	0.9	0
33	225	1	0
33	225	1.1	0
33	225	1.2	0
33	225	1.3	0
33	225	1.4	0
33	225	1.5	0
33	225	1.6	0
33	225	1.7	0
33	225	1.8	0
33	225	1.9	0
33	225	2	0
33	225	2.1	0
33	225	2.2	0
33	225	2.3	0
33	225	2.4	0
33	225	2.5	0
33	225	2.6	0
33	225	2.7	0
33	225	2.8	0
33	225	2.9	0
33	225	3	0
33	225	3.1	0
33	225	3.2	0
33	225	3.3	0
33	225	3.4	0
33	225	3.5	0
33	225	3.6	0
33	225	3.7	0
33	225	3.8	0
33	225	3.9	0
33	225	4	0
33	225	4.1	0
33	225	4.2	0
33	225	4.3	0
33	225	4.4	0
33	225	4.5	0
33	225	4.6	0
33	225	4.7	0
33	225	4.8	0
33	225	4.9	0
33	225	5	0
33	225	5.1	0
33	225	5.2	0
33	225	5.3	0
33	225	5.4	0
33	225	5.5	0
33	225	5.6	0
33	225	5.7	0
33	225	5.8	0
33	225	5.9	0
33	225	6	0
33	225	6.1	0
33	225	6.2	0
33	225	6.3	0
33	225	6.4	0
33	225	6.5	0
33	225	6.6	0
33	225	6.7	0
33	225	6.8	0
33	225	6.9	0
33	225	7	0
33	225	7.1	0
33	225	7.2	0
33	225	7.3	0
33	225	7.4	0
33	225	7.5	0
33	225	7.6	0
33	225	7.7	0
33	225	7.8	0
33	225	7.9	0
33	225	8	0
33	225	8.1	0
33	225	8.2	0
33	225	8.3	0
33	225	8.4	0
33	225	8.5	0
33	225	8.6	0
33	225	8.7	0
33	225	8.8	0
33	225	8.9	0
33	225	9	0
33	225	9.1	0
33	225	9.2	0
33	225	9.3	0
33	225	9.4	0
33	225	9.5	0
33	225	9.6	0
33	225	9.7	0
33	225	9.8	0
33	225	9.9	0
33	225	10	0
33	225	10.1	0
33	225	10.2	0
33	225	10.3	0
33	225	10.4	0
33	225	10.5	0
33	225	10.6	0
33	225	10.7	0
33	225	10.8	0
33	225	10.9	0
33	225	11	0
33	225	11.1	0
33	225	11.2	0
33	225	11.3	0
33	225	11.4	0
33	225	11.5	0
33	225	11.6	0
33	225	11.7	0
33	225	11.8	0
33	225	11.9	0
33	225	12	0
33	225	12.1	0
33	225	12.2	0
33	225	12.3	0
33	225	12.4	0
33	225	12.5	0
33	225	12.6	0
33	225	12.7	0
33	225	12.8	0
33	225	12.9	0
33	225	13	0
33	225	13.1	0
33	225	13.2	0
33	225	13.3	0
33	225	13.4	0
33	225	13.5	0
33	225	13.6	0
33	225	13.7	0
33	225	13.8	0
33	225	13.9	0
33	225	14	0
33	225	14.1	0
33	225	14.2	0
33	225	14.3	0
33	225	14.4	0
33	225	14.5	0
33	225	14.6	0
33	225	14.7	0
33	225	14.8	0
33	225	14.9	0
33	225	15	0
33	225	15.1	0
33	225	15.2	0
33	225	15.3	0
33	225	15.4	0
33	225	15.5	0
33	225	15.6	0
33	225	15.7	0
33	225	15.8	0
33	225	15.9	0
33	225	16	0
33	225	16.1	0
33	225	16.2	0
33	225	16.3	0
33	225	16.4	0
33	225	16.5	0
33	225	16.6	0
33	225	16.7	0
33	225	16.8	0
33	225	16.9	0
33	225	17	0
33	225	17.1	0
33	225	17.2	0
33	225	17.3	0
33	225	17.4	0
33	225	17.5	0
33	225	17.6	0
33	225	17.7	0
33	225	17.8	0
33	225	17.9	0
33	225	18	0
33	225	18.1	0
33	225	18.2	0
33	225	18.3	0
33	225	18.4	0
33	225	18.5	0
33	225	18.6	0
33	225	18.7	0
33	225	18.8	0
33	225	18.9	0
33	225	19	0
33	225	19.1	0
33	225	19.2	0
33	225	19.3	0
33	225	19.4	0
33	225	19.5	0
33	225	19.6	0
33	225	19.7	0
33	225	19.8	0
33	225	19.9	0
33	225	20	0
33	877	20.1	48000
33	877	20.2	0
33	877	20.3	0
33	877	20.4	0
33	877	20.5	0
33	877	20.6	0
33	877	20.7	0
33	877	20.8	0
33	877	20.9	0
33	877	21	0
33	877	21.1	0
33	877	21.2	0
33	877	21.3	0
33	877	21.4	0
33	877	21.5	0
33	877	21.6	0
33	877	21.7	0
33	877	21.8	0
33	877	21.9	0
33	877	22	0
33	877	22.1	0
33	877	22.2	0
33	877	22.3	0
33	877	22.4	0
33	877	22.5	0
33	877	22.6	0
33	877	22.7	0
33	877	22.8	0
33	877	22.9	0
33	877	23	0
33	877	23.1	0
33	877	23.2	0
33	877	23.3	0
33	877	23.4	0
33	877	23.5	0
33	877	23.6	0
33	877	23.7	0
33	877	23.8	0
33	877	23.9	0
33	877	24	0
33	877	24.1	0
33	877	24.2	0
33	877	24.3	0
33	877	24.4	0
33	877	24.5	0
33	877	24.6	0
33	877	24.7	0
33	877	24.8	0
33	877	24.9	0
33	877	25	0
33	877	25.1	0
33	877	25.2	0
33	877	25.3	0
33	877	25.4	0
33	877	25.5	0
33	877	25.6	0
33	877	25.7	0
33	877	25.8	0
33	877	25.9	0
33	877	26	0
33	877	26.1	0
33	877	26.2	0
33	877	26.3	0
33	877	26.4	0
33	877	26.5	0
33	877	26.6	0
33	877	26.7	0
33	877	26.8	0
33	877	26.9	0
33	877	27	0
33	877	27.1	0
33	877	27.2	0
33	877	27.3	0
33	877	27.4	0
33	877	27.5	0
33	877	27.6	0
33	877	27.7	0
33	877	27.8	0
33	877	27.9	0
33	877	28	0
33	877	28.1	0
33	877	28.2	0
33	877	28.3	0
33	877	28.4	0
33	877	28.5	0
33	877	28.6	0
33	877	28.7	0
33	877	28.8	0
33	877	28.9	0
33	877	29	0
33	877	29.1	0
33	877	29.2	0
33	877	29.3	0
33	877	29.4	0
33	877	29.5	0
33	877	29.6	0
33	877	29.7	0
33	877	29.8	0
33	877	29.9	0
33	877	30	0
33	877	30.1	0
33	877	30.2	0
33	877	30.3	0
33	877	30.4	0
33	877	30.5	0
33	877	30.6	0
33	877	30.7	0
33	877	30.8	0
33	877	30.9	0
33	877	31	0
33	877	31.1	0
33	877	31.2	0
33	877	31.3	0
33	877	31.4	0
33	877	31.5	0
33	877	31.6	0
33	877	31.7	0
33	877	31.8	0
33	877	31.9	0
33	877	32	0
33	877	32.1	0
33	877	32.2	0
33	877	32.3	0
33	877	32.4	0
33	877	32.5	0
33	877	32.6	0
33	877	32.7	0
33	877	32.8	0
33	877	32.9	0
33	877	33	0
33	877	33.1	0
33	877	33.2	0
33	877	33.3	0
33	877	33.4	0
33	877	33.5	0
33	877	33.6	0
33	877	33.7	0
33	877	33.8	0
33	877	33.9	0
33	877	34	0
33	877	34.1	0
33	877	34.2	0
33	877	34.3	0
33	877	34.4	0
33	877	34.5	0
33	877	34.6	0
33	877	34.7	0
33	877	34.8	0
33	877	34.9	0
33	877	35	0
33	877	35.1	0
33	877	35.2	0
33	877	35.3	0
33	877	35.4	0
33	877	35.5	0
33	877	35.6	0
33	877	35.7	0
33	877	35.8	0
33	877	35.9	0
33	877	36	0
33	877	36.1	0
33	877	36.2	0
33	877	36.3	0
33	877	36.4	0
33	877	36.5	0
33	877	36.6	0
33	877	36.7	0
33	877	36.8	0
33	877	36.9	0
33	877	37	0
33	877	37.1	0
33	877	37.2	0
33	877	37.3	0
33	877	37.4	0
33	877	37.5	0
33	877	37.6	0
33	877	37.7	0
33	877	37.8	0
33	877	37.9	0
33	877	38	0
33	877	38.1	0
33	877	38.2	0
33	877	38.3	0
33	877	38.4	0
33	877	38.5	0
33	877	38.6	0
33	877	38.7	0
33	877	38.8	0
33	877	38.9	0
33	877	39	0
33	877	39.1	0
33	877	39.2	0
33	877	39.3	0
33	877	39.4	0
33	877	39.5	0
33	877	39.6	0
33	877	39.7	0
33	877	39.8	0
33	877	39.9	0
33	877	40	0
33	877	40.1	0
33	877	40.2	0
33	877	40.3	0
33	877	40.4	0
33	877	40.5	0
33	877	40.6	0
33	877	40.7	0
33	877	40.8	0
33	877	40.9	0
33	877	41	0
33	877	41.1	0
33	877	41.2	0
33	877	41.3	0
33	877	41.4	0
33	877	41.5	0
33	877	41.6	0
33	877	41.7	0
33	877	41.8	0
33	877	41.9	0
33	877	42	0
33	877	42.1	0
33	877	42.2	0
33	877	42.3	0
33	877	42.4	0
33	877	42.5	0
33	877	42.6	0
33	877	42.7	0
33	877	42.8	0
33	877	42.9	0
33	877	43	0
33	877	43.1	0
33	877	43.2	0
33	877	43.3	0
33	877	43.4	0
33	877	43.5	0
33	877	43.6	0
33	877	43.7	0
33	877	43.8	0
33	877	43.9	0
33	877	44	0
33	877	44.1	0
33	877	44.2	0
33	877	44.3	0
33	877	44.4	0
33	877	44.5	0
33	877	44.6	0
33	877	44.7	0
33	877	44.8	0
33	877	44.9	0
33	877	45	0
33	877	45.1	0
33	877	45.2	0
33	877	45.3	0
33	877	45.4	0
33	877	45.5	0
33	877	45.6	0
33	877	45.7	0
33	877	45.8	0
33	877	45.9	0
33	877	46	0
33	877	46.1	0
33	877	46.2	0
33	877	46.3	0
33	877	46.4	0
33	877	46.5	0
33	877	46.6	0
33	877	46.7	0
33	877	46.8	0
33	877	46.9	0
33	877	47	0
33	877	47.1	0
33	877	47.2	0
33	877	47.3	0
33	877	47.4	0
33	877	47.5	0
33	877	47.6	0
33	877	47.7	0
33	877	47.8	0
33	877	47.9	0
33	877	48	0
33	877	48.1	0
33	877	48.2	0
33	877	48.3	0
33	877	48.4	0
33	877	48.5	0
33	877	48.6	0
33	877	48.7	0
33	877	48.8	0
33	877	48.9	0
33	877	49	0
33	877	49.1	0
33	877	49.2	0
33	877	49.3	0
33	877	49.4	0
33	877	49.5	0
33	877	49.6	0
33	877	49.7	0
33	877	49.8	0
33	877	49.9	0
33	877	50	0
33	877	50.1	0
33	877	50.2	0
33	877	50.3	0
33	877	50.4	0
33	877	50.5	0
33	877	50.6	0
33	877	50.7	0
33	877	50.8	0
33	877	50.9	0
33	877	51	0
33	877	51.1	0
33	877	51.2	0
33	877	51.3	0
33	877	51.4	0
33	877	51.5	0
33	877	51.6	0
33	877	51.7	0
33	877	51.8	0
33	877	51.9	0
33	877	52	0
33	877	52.1	0
33	877	52.2	0
33	877	52.3	0
33	877	52.4	0
33	877	52.5	0
33	877	52.6	0
33	877	52.7	0
33	877	52.8	0
33	877	52.9	0
33	877	53	0
33	877	53.1	0
33	877	53.2	0
33	877	53.3	0
33	877	53.4	0
33	877	53.5	0
33	877	53.6	0
33	877	53.7	0
33	877	53.8	0
33	877	53.9	0
33	877	54	0
33	877	54.1	0
33	877	54.2	0
33	877	54.3	0
33	877	54.4	0
33	877	54.5	0
33	877	54.6	0
33	877	54.7	0
33	877	54.8	0
33	877	54.9	0
33	877	55	0
33	877	55.1	0
33	877	55.2	0
33	877	55.3	0
33	877	55.4	0
33	877	55.5	0
33	877	55.6	0
33	877	55.7	0
33	877	55.8	0
33	877	55.9	0
33	877	56	0
33	877	56.1	0
33	877	56.2	0
33	877	56.3	0
33	877	56.4	0
33	877	56.5	0
33	877	56.6	0
33	877	56.7	0
33	877	56.8	0
33	877	56.9	0
33	877	57	0
33	877	57.1	0
33	877	57.2	0
33	877	57.3	0
33	877	57.4	0
33	877	57.5	0
33	877	57.6	0
33	877	57.7	0
33	877	57.8	0
33	877	57.9	0
33	877	58	0
33	877	58.1	0
33	877	58.2	0
33	877	58.3	0
33	877	58.4	0
33	877	58.5	0
33	877	58.6	0
33	877	58.7	0
33	877	58.8	0
33	877	58.9	0
33	877	59	0
33	877	59.1	0
33	877	59.2	0
33	877	59.3	0
33	877	59.4	0
33	877	59.5	0
33	877	59.6	0
33	877	59.7	0
33	877	59.8	0
33	877	59.9	0
33	877	60	0
34	225	20	0
34	233	20	0
34	333	20.000376023618	0.000376023618
34	367	20.000651265529	0.000651265529
34	435	20.001123972091	0.001123972091
34	457	20.001359990424	0.001359990424
35	235	20	158
35	235	20	158
36	235	20	0
36	235	20	0
37	235	20	1
37	235	20	2
37	242	20.000152	1
37	376	20.000887265529	0
38	235	20	12000000
38	369	20.000735265529	12000000
39	235	20	158
39	369	20.000735265529	158
40	235	20	1
40	242	20.000152	0
40	369	20.000735265529	1
40	376	20.000887265529	0
41	236	20	1
41	237	20	2
41	242	20.000152	1
41	243	20.000152	0
41	370	20.000735265529	1
41	371	20.000735265529	2
41	376	20.000887265529	1
41	377	20.000887265529	0
42	242	20.000152	158
42	376	20.000887265529	158
43	242	20.000152	158
43	376	20.000887265529	158
44	242	20.000152	158
44	376	20.000887265529	158
45	242	20.000152	0.000152
45	376	20.000887265529	0.000887265529
46	245	20.000152258461	158
46	317	20.000375803047	158
46	357	20.000651019035	158
46	379	20.00088752399	158
46	413	20.001123731963	158
47	245	20.000152258461	158
47	317	20.000375803047	158
47	357	20.000651019035	158
47	379	20.00088752399	158
47	413	20.001123731963	158
48	245	20.000152258461	158
48	317	20.000375803047	158
48	357	20.000651019035	158
48	379	20.00088752399	158
48	413	20.001123731963	158
49	245	20.000152258461	158
49	317	20.000375803047	158
49	357	20.000651019035	158
49	379	20.00088752399	158
49	413	20.001123731963	158
50	245	20.000152258461	130
50	317	20.000375803047	130
50	357	20.000651019035	130
50	379	20.00088752399	130
50	413	20.001123731963	130
51	247	20.000152258461	128
51	254	20.000152258461	128
51	319	20.000375803047	128
51	359	20.000651019035	128
51	381	20.00088752399	128
51	415	20.001123731963	128
52	248	20.000152258461	108
52	256	20.000152258461	108
52	320	20.000375803047	108
52	360	20.000651019035	108
52	382	20.00088752399	108
52	416	20.001123731963	108
53	248	20.000152258461	1
53	256	20.000152258461	2
53	320	20.000375803047	3
53	360	20.000651019035	4
53	382	20.00088752399	5
53	416	20.001123731963	6
54	249	20.000152258461	100
54	257	20.000152258461	100
54	321	20.000375803047	100
54	361	20.000651019035	100
54	383	20.00088752399	100
54	417	20.001123731963	100
55	249	0.1	0
55	249	0.2	0
55	249	0.3	0
55	249	0.4	0
55	249	0.5	0
55	249	0.6	0
55	249	0.7	0
55	249	0.8	0
55	249	0.9	0
55	249	1	0
55	249	1.1	0
55	249	1.2	0
55	249	1.3	0
55	249	1.4	0
55	249	1.5	0
55	249	1.6	0
55	249	1.7	0
55	249	1.8	0
55	249	1.9	0
55	249	2	0
55	249	2.1	0
55	249	2.2	0
55	249	2.3	0
55	249	2.4	0
55	249	2.5	0
55	249	2.6	0
55	249	2.7	0
55	249	2.8	0
55	249	2.9	0
55	249	3	0
55	249	3.1	0
55	249	3.2	0
55	249	3.3	0
55	249	3.4	0
55	249	3.5	0
55	249	3.6	0
55	249	3.7	0
55	249	3.8	0
55	249	3.9	0
55	249	4	0
55	249	4.1	0
55	249	4.2	0
55	249	4.3	0
55	249	4.4	0
55	249	4.5	0
55	249	4.6	0
55	249	4.7	0
55	249	4.8	0
55	249	4.9	0
55	249	5	0
55	249	5.1	0
55	249	5.2	0
55	249	5.3	0
55	249	5.4	0
55	249	5.5	0
55	249	5.6	0
55	249	5.7	0
55	249	5.8	0
55	249	5.9	0
55	249	6	0
55	249	6.1	0
55	249	6.2	0
55	249	6.3	0
55	249	6.4	0
55	249	6.5	0
55	249	6.6	0
55	249	6.7	0
55	249	6.8	0
55	249	6.9	0
55	249	7	0
55	249	7.1	0
55	249	7.2	0
55	249	7.3	0
55	249	7.4	0
55	249	7.5	0
55	249	7.6	0
55	249	7.7	0
55	249	7.8	0
55	249	7.9	0
55	249	8	0
55	249	8.1	0
55	249	8.2	0
55	249	8.3	0
55	249	8.4	0
55	249	8.5	0
55	249	8.6	0
55	249	8.7	0
55	249	8.8	0
55	249	8.9	0
55	249	9	0
55	249	9.1	0
55	249	9.2	0
55	249	9.3	0
55	249	9.4	0
55	249	9.5	0
55	249	9.6	0
55	249	9.7	0
55	249	9.8	0
55	249	9.9	0
55	249	10	0
55	249	10.1	0
55	249	10.2	0
55	249	10.3	0
55	249	10.4	0
55	249	10.5	0
55	249	10.6	0
55	249	10.7	0
55	249	10.8	0
55	249	10.9	0
55	249	11	0
55	249	11.1	0
55	249	11.2	0
55	249	11.3	0
55	249	11.4	0
55	249	11.5	0
55	249	11.6	0
55	249	11.7	0
55	249	11.8	0
55	249	11.9	0
55	249	12	0
55	249	12.1	0
55	249	12.2	0
55	249	12.3	0
55	249	12.4	0
55	249	12.5	0
55	249	12.6	0
55	249	12.7	0
55	249	12.8	0
55	249	12.9	0
55	249	13	0
55	249	13.1	0
55	249	13.2	0
55	249	13.3	0
55	249	13.4	0
55	249	13.5	0
55	249	13.6	0
55	249	13.7	0
55	249	13.8	0
55	249	13.9	0
55	249	14	0
55	249	14.1	0
55	249	14.2	0
55	249	14.3	0
55	249	14.4	0
55	249	14.5	0
55	249	14.6	0
55	249	14.7	0
55	249	14.8	0
55	249	14.9	0
55	249	15	0
55	249	15.1	0
55	249	15.2	0
55	249	15.3	0
55	249	15.4	0
55	249	15.5	0
55	249	15.6	0
55	249	15.7	0
55	249	15.8	0
55	249	15.9	0
55	249	16	0
55	249	16.1	0
55	249	16.2	0
55	249	16.3	0
55	249	16.4	0
55	249	16.5	0
55	249	16.6	0
55	249	16.7	0
55	249	16.8	0
55	249	16.9	0
55	249	17	0
55	249	17.1	0
55	249	17.2	0
55	249	17.3	0
55	249	17.4	0
55	249	17.5	0
55	249	17.6	0
55	249	17.7	0
55	249	17.8	0
55	249	17.9	0
55	249	18	0
55	249	18.1	0
55	249	18.2	0
55	249	18.3	0
55	249	18.4	0
55	249	18.5	0
55	249	18.6	0
55	249	18.7	0
55	249	18.8	0
55	249	18.9	0
55	249	19	0
55	249	19.1	0
55	249	19.2	0
55	249	19.3	0
55	249	19.4	0
55	249	19.5	0
55	249	19.6	0
55	249	19.7	0
55	249	19.8	0
55	249	19.9	0
55	249	20	0
55	877	20.1	48000
55	877	20.2	0
55	877	20.3	0
55	877	20.4	0
55	877	20.5	0
55	877	20.6	0
55	877	20.7	0
55	877	20.8	0
55	877	20.9	0
55	877	21	0
55	877	21.1	0
55	877	21.2	0
55	877	21.3	0
55	877	21.4	0
55	877	21.5	0
55	877	21.6	0
55	877	21.7	0
55	877	21.8	0
55	877	21.9	0
55	877	22	0
55	877	22.1	0
55	877	22.2	0
55	877	22.3	0
55	877	22.4	0
55	877	22.5	0
55	877	22.6	0
55	877	22.7	0
55	877	22.8	0
55	877	22.9	0
55	877	23	0
55	877	23.1	0
55	877	23.2	0
55	877	23.3	0
55	877	23.4	0
55	877	23.5	0
55	877	23.6	0
55	877	23.7	0
55	877	23.8	0
55	877	23.9	0
55	877	24	0
55	877	24.1	0
55	877	24.2	0
55	877	24.3	0
55	877	24.4	0
55	877	24.5	0
55	877	24.6	0
55	877	24.7	0
55	877	24.8	0
55	877	24.9	0
55	877	25	0
55	877	25.1	0
55	877	25.2	0
55	877	25.3	0
55	877	25.4	0
55	877	25.5	0
55	877	25.6	0
55	877	25.7	0
55	877	25.8	0
55	877	25.9	0
55	877	26	0
55	877	26.1	0
55	877	26.2	0
55	877	26.3	0
55	877	26.4	0
55	877	26.5	0
55	877	26.6	0
55	877	26.7	0
55	877	26.8	0
55	877	26.9	0
55	877	27	0
55	877	27.1	0
55	877	27.2	0
55	877	27.3	0
55	877	27.4	0
55	877	27.5	0
55	877	27.6	0
55	877	27.7	0
55	877	27.8	0
55	877	27.9	0
55	877	28	0
55	877	28.1	0
55	877	28.2	0
55	877	28.3	0
55	877	28.4	0
55	877	28.5	0
55	877	28.6	0
55	877	28.7	0
55	877	28.8	0
55	877	28.9	0
55	877	29	0
55	877	29.1	0
55	877	29.2	0
55	877	29.3	0
55	877	29.4	0
55	877	29.5	0
55	877	29.6	0
55	877	29.7	0
55	877	29.8	0
55	877	29.9	0
55	877	30	0
55	877	30.1	0
55	877	30.2	0
55	877	30.3	0
55	877	30.4	0
55	877	30.5	0
55	877	30.6	0
55	877	30.7	0
55	877	30.8	0
55	877	30.9	0
55	877	31	0
55	877	31.1	0
55	877	31.2	0
55	877	31.3	0
55	877	31.4	0
55	877	31.5	0
55	877	31.6	0
55	877	31.7	0
55	877	31.8	0
55	877	31.9	0
55	877	32	0
55	877	32.1	0
55	877	32.2	0
55	877	32.3	0
55	877	32.4	0
55	877	32.5	0
55	877	32.6	0
55	877	32.7	0
55	877	32.8	0
55	877	32.9	0
55	877	33	0
55	877	33.1	0
55	877	33.2	0
55	877	33.3	0
55	877	33.4	0
55	877	33.5	0
55	877	33.6	0
55	877	33.7	0
55	877	33.8	0
55	877	33.9	0
55	877	34	0
55	877	34.1	0
55	877	34.2	0
55	877	34.3	0
55	877	34.4	0
55	877	34.5	0
55	877	34.6	0
55	877	34.7	0
55	877	34.8	0
55	877	34.9	0
55	877	35	0
55	877	35.1	0
55	877	35.2	0
55	877	35.3	0
55	877	35.4	0
55	877	35.5	0
55	877	35.6	0
55	877	35.7	0
55	877	35.8	0
55	877	35.9	0
55	877	36	0
55	877	36.1	0
55	877	36.2	0
55	877	36.3	0
55	877	36.4	0
55	877	36.5	0
55	877	36.6	0
55	877	36.7	0
55	877	36.8	0
55	877	36.9	0
55	877	37	0
55	877	37.1	0
55	877	37.2	0
55	877	37.3	0
55	877	37.4	0
55	877	37.5	0
55	877	37.6	0
55	877	37.7	0
55	877	37.8	0
55	877	37.9	0
55	877	38	0
55	877	38.1	0
55	877	38.2	0
55	877	38.3	0
55	877	38.4	0
55	877	38.5	0
55	877	38.6	0
55	877	38.7	0
55	877	38.8	0
55	877	38.9	0
55	877	39	0
55	877	39.1	0
55	877	39.2	0
55	877	39.3	0
55	877	39.4	0
55	877	39.5	0
55	877	39.6	0
55	877	39.7	0
55	877	39.8	0
55	877	39.9	0
55	877	40	0
55	877	40.1	0
55	877	40.2	0
55	877	40.3	0
55	877	40.4	0
55	877	40.5	0
55	877	40.6	0
55	877	40.7	0
55	877	40.8	0
55	877	40.9	0
55	877	41	0
55	877	41.1	0
55	877	41.2	0
55	877	41.3	0
55	877	41.4	0
55	877	41.5	0
55	877	41.6	0
55	877	41.7	0
55	877	41.8	0
55	877	41.9	0
55	877	42	0
55	877	42.1	0
55	877	42.2	0
55	877	42.3	0
55	877	42.4	0
55	877	42.5	0
55	877	42.6	0
55	877	42.7	0
55	877	42.8	0
55	877	42.9	0
55	877	43	0
55	877	43.1	0
55	877	43.2	0
55	877	43.3	0
55	877	43.4	0
55	877	43.5	0
55	877	43.6	0
55	877	43.7	0
55	877	43.8	0
55	877	43.9	0
55	877	44	0
55	877	44.1	0
55	877	44.2	0
55	877	44.3	0
55	877	44.4	0
55	877	44.5	0
55	877	44.6	0
55	877	44.7	0
55	877	44.8	0
55	877	44.9	0
55	877	45	0
55	877	45.1	0
55	877	45.2	0
55	877	45.3	0
55	877	45.4	0
55	877	45.5	0
55	877	45.6	0
55	877	45.7	0
55	877	45.8	0
55	877	45.9	0
55	877	46	0
55	877	46.1	0
55	877	46.2	0
55	877	46.3	0
55	877	46.4	0
55	877	46.5	0
55	877	46.6	0
55	877	46.7	0
55	877	46.8	0
55	877	46.9	0
55	877	47	0
55	877	47.1	0
55	877	47.2	0
55	877	47.3	0
55	877	47.4	0
55	877	47.5	0
55	877	47.6	0
55	877	47.7	0
55	877	47.8	0
55	877	47.9	0
55	877	48	0
55	877	48.1	0
55	877	48.2	0
55	877	48.3	0
55	877	48.4	0
55	877	48.5	0
55	877	48.6	0
55	877	48.7	0
55	877	48.8	0
55	877	48.9	0
55	877	49	0
55	877	49.1	0
55	877	49.2	0
55	877	49.3	0
55	877	49.4	0
55	877	49.5	0
55	877	49.6	0
55	877	49.7	0
55	877	49.8	0
55	877	49.9	0
55	877	50	0
55	877	50.1	0
55	877	50.2	0
55	877	50.3	0
55	877	50.4	0
55	877	50.5	0
55	877	50.6	0
55	877	50.7	0
55	877	50.8	0
55	877	50.9	0
55	877	51	0
55	877	51.1	0
55	877	51.2	0
55	877	51.3	0
55	877	51.4	0
55	877	51.5	0
55	877	51.6	0
55	877	51.7	0
55	877	51.8	0
55	877	51.9	0
55	877	52	0
55	877	52.1	0
55	877	52.2	0
55	877	52.3	0
55	877	52.4	0
55	877	52.5	0
55	877	52.6	0
55	877	52.7	0
55	877	52.8	0
55	877	52.9	0
55	877	53	0
55	877	53.1	0
55	877	53.2	0
55	877	53.3	0
55	877	53.4	0
55	877	53.5	0
55	877	53.6	0
55	877	53.7	0
55	877	53.8	0
55	877	53.9	0
55	877	54	0
55	877	54.1	0
55	877	54.2	0
55	877	54.3	0
55	877	54.4	0
55	877	54.5	0
55	877	54.6	0
55	877	54.7	0
55	877	54.8	0
55	877	54.9	0
55	877	55	0
55	877	55.1	0
55	877	55.2	0
55	877	55.3	0
55	877	55.4	0
55	877	55.5	0
55	877	55.6	0
55	877	55.7	0
55	877	55.8	0
55	877	55.9	0
55	877	56	0
55	877	56.1	0
55	877	56.2	0
55	877	56.3	0
55	877	56.4	0
55	877	56.5	0
55	877	56.6	0
55	877	56.7	0
55	877	56.8	0
55	877	56.9	0
55	877	57	0
55	877	57.1	0
55	877	57.2	0
55	877	57.3	0
55	877	57.4	0
55	877	57.5	0
55	877	57.6	0
55	877	57.7	0
55	877	57.8	0
55	877	57.9	0
55	877	58	0
55	877	58.1	0
55	877	58.2	0
55	877	58.3	0
55	877	58.4	0
55	877	58.5	0
55	877	58.6	0
55	877	58.7	0
55	877	58.8	0
55	877	58.9	0
55	877	59	0
55	877	59.1	0
55	877	59.2	0
55	877	59.3	0
55	877	59.4	0
55	877	59.5	0
55	877	59.6	0
55	877	59.7	0
55	877	59.8	0
55	877	59.9	0
55	877	60	0
56	249	20.000152258461	0.000152258461
56	257	20.000152258461	0.000152258461
56	321	20.000375803047	0.000375803047
56	361	20.000651019035	0.000651019035
56	383	20.00088752399	0.00088752399
56	417	20.001123731963	0.001123731963
57	249	20.000152258461	100
58	250	20.000152258461	108
59	252	20.000152258461	128
60	252	20.000152258461	128
61	255	20.000152258461	130
62	255	20.000152258461	158
63	255	20.000152258461	1
63	437	20.001207731963	0
64	255	20.000152258461	12
65	255	20.000152258461	1
65	305	20.000223803047	0
65	316	20.000375803047	1
65	340	20.000499019035	0
65	356	20.000651019035	1
65	372	20.00073552399	0
65	378	20.00088752399	1
65	406	20.000971731963	0
65	412	20.001123731963	1
65	436	20.001207731963	0
66	259	20.000152353281	158
66	323	20.000375809732	158
66	351	20.000650981677	158
66	385	20.00088761881	158
66	447	20.001359845116	158
67	259	20.000152353281	158
67	323	20.000375809732	158
67	351	20.000650981677	158
67	385	20.00088761881	158
67	447	20.001359845116	158
68	259	20.000152353281	158
68	323	20.000375809732	158
68	351	20.000650981677	158
68	385	20.00088761881	158
68	447	20.001359845116	158
69	259	20.000152353281	158
69	323	20.000375809732	158
69	351	20.000650981677	158
69	385	20.00088761881	158
69	447	20.001359845116	158
70	259	20.000152353281	130
70	323	20.000375809732	130
70	351	20.000650981677	130
70	385	20.00088761881	130
70	447	20.001359845116	130
71	261	20.000152353281	128
71	268	20.000152353281	128
71	325	20.000375809732	128
71	353	20.000650981677	128
71	387	20.00088761881	128
71	449	20.001359845116	128
72	262	20.000152353281	108
72	270	20.000152353281	108
72	326	20.000375809732	108
72	354	20.000650981677	108
72	388	20.00088761881	108
72	450	20.001359845116	108
73	262	20.000152353281	1
73	270	20.000152353281	2
73	326	20.000375809732	3
73	354	20.000650981677	4
73	388	20.00088761881	5
73	450	20.001359845116	6
74	263	20.000152353281	100
74	271	20.000152353281	100
74	327	20.000375809732	100
74	355	20.000650981677	100
74	389	20.00088761881	100
74	451	20.001359845116	100
75	263	0.1	0
75	263	0.2	0
75	263	0.3	0
75	263	0.4	0
75	263	0.5	0
75	263	0.6	0
75	263	0.7	0
75	263	0.8	0
75	263	0.9	0
75	263	1	0
75	263	1.1	0
75	263	1.2	0
75	263	1.3	0
75	263	1.4	0
75	263	1.5	0
75	263	1.6	0
75	263	1.7	0
75	263	1.8	0
75	263	1.9	0
75	263	2	0
75	263	2.1	0
75	263	2.2	0
75	263	2.3	0
75	263	2.4	0
75	263	2.5	0
75	263	2.6	0
75	263	2.7	0
75	263	2.8	0
75	263	2.9	0
75	263	3	0
75	263	3.1	0
75	263	3.2	0
75	263	3.3	0
75	263	3.4	0
75	263	3.5	0
75	263	3.6	0
75	263	3.7	0
75	263	3.8	0
75	263	3.9	0
75	263	4	0
75	263	4.1	0
75	263	4.2	0
75	263	4.3	0
75	263	4.4	0
75	263	4.5	0
75	263	4.6	0
75	263	4.7	0
75	263	4.8	0
75	263	4.9	0
75	263	5	0
75	263	5.1	0
75	263	5.2	0
75	263	5.3	0
75	263	5.4	0
75	263	5.5	0
75	263	5.6	0
75	263	5.7	0
75	263	5.8	0
75	263	5.9	0
75	263	6	0
75	263	6.1	0
75	263	6.2	0
75	263	6.3	0
75	263	6.4	0
75	263	6.5	0
75	263	6.6	0
75	263	6.7	0
75	263	6.8	0
75	263	6.9	0
75	263	7	0
75	263	7.1	0
75	263	7.2	0
75	263	7.3	0
75	263	7.4	0
75	263	7.5	0
75	263	7.6	0
75	263	7.7	0
75	263	7.8	0
75	263	7.9	0
75	263	8	0
75	263	8.1	0
75	263	8.2	0
75	263	8.3	0
75	263	8.4	0
75	263	8.5	0
75	263	8.6	0
75	263	8.7	0
75	263	8.8	0
75	263	8.9	0
75	263	9	0
75	263	9.1	0
75	263	9.2	0
75	263	9.3	0
75	263	9.4	0
75	263	9.5	0
75	263	9.6	0
75	263	9.7	0
75	263	9.8	0
75	263	9.9	0
75	263	10	0
75	263	10.1	0
75	263	10.2	0
75	263	10.3	0
75	263	10.4	0
75	263	10.5	0
75	263	10.6	0
75	263	10.7	0
75	263	10.8	0
75	263	10.9	0
75	263	11	0
75	263	11.1	0
75	263	11.2	0
75	263	11.3	0
75	263	11.4	0
75	263	11.5	0
75	263	11.6	0
75	263	11.7	0
75	263	11.8	0
75	263	11.9	0
75	263	12	0
75	263	12.1	0
75	263	12.2	0
75	263	12.3	0
75	263	12.4	0
75	263	12.5	0
75	263	12.6	0
75	263	12.7	0
75	263	12.8	0
75	263	12.9	0
75	263	13	0
75	263	13.1	0
75	263	13.2	0
75	263	13.3	0
75	263	13.4	0
75	263	13.5	0
75	263	13.6	0
75	263	13.7	0
75	263	13.8	0
75	263	13.9	0
75	263	14	0
75	263	14.1	0
75	263	14.2	0
75	263	14.3	0
75	263	14.4	0
75	263	14.5	0
75	263	14.6	0
75	263	14.7	0
75	263	14.8	0
75	263	14.9	0
75	263	15	0
75	263	15.1	0
75	263	15.2	0
75	263	15.3	0
75	263	15.4	0
75	263	15.5	0
75	263	15.6	0
75	263	15.7	0
75	263	15.8	0
75	263	15.9	0
75	263	16	0
75	263	16.1	0
75	263	16.2	0
75	263	16.3	0
75	263	16.4	0
75	263	16.5	0
75	263	16.6	0
75	263	16.7	0
75	263	16.8	0
75	263	16.9	0
75	263	17	0
75	263	17.1	0
75	263	17.2	0
75	263	17.3	0
75	263	17.4	0
75	263	17.5	0
75	263	17.6	0
75	263	17.7	0
75	263	17.8	0
75	263	17.9	0
75	263	18	0
75	263	18.1	0
75	263	18.2	0
75	263	18.3	0
75	263	18.4	0
75	263	18.5	0
75	263	18.6	0
75	263	18.7	0
75	263	18.8	0
75	263	18.9	0
75	263	19	0
75	263	19.1	0
75	263	19.2	0
75	263	19.3	0
75	263	19.4	0
75	263	19.5	0
75	263	19.6	0
75	263	19.7	0
75	263	19.8	0
75	263	19.9	0
75	263	20	0
75	877	20.1	48000
75	877	20.2	0
75	877	20.3	0
75	877	20.4	0
75	877	20.5	0
75	877	20.6	0
75	877	20.7	0
75	877	20.8	0
75	877	20.9	0
75	877	21	0
75	877	21.1	0
75	877	21.2	0
75	877	21.3	0
75	877	21.4	0
75	877	21.5	0
75	877	21.6	0
75	877	21.7	0
75	877	21.8	0
75	877	21.9	0
75	877	22	0
75	877	22.1	0
75	877	22.2	0
75	877	22.3	0
75	877	22.4	0
75	877	22.5	0
75	877	22.6	0
75	877	22.7	0
75	877	22.8	0
75	877	22.9	0
75	877	23	0
75	877	23.1	0
75	877	23.2	0
75	877	23.3	0
75	877	23.4	0
75	877	23.5	0
75	877	23.6	0
75	877	23.7	0
75	877	23.8	0
75	877	23.9	0
75	877	24	0
75	877	24.1	0
75	877	24.2	0
75	877	24.3	0
75	877	24.4	0
75	877	24.5	0
75	877	24.6	0
75	877	24.7	0
75	877	24.8	0
75	877	24.9	0
75	877	25	0
75	877	25.1	0
75	877	25.2	0
75	877	25.3	0
75	877	25.4	0
75	877	25.5	0
75	877	25.6	0
75	877	25.7	0
75	877	25.8	0
75	877	25.9	0
75	877	26	0
75	877	26.1	0
75	877	26.2	0
75	877	26.3	0
75	877	26.4	0
75	877	26.5	0
75	877	26.6	0
75	877	26.7	0
75	877	26.8	0
75	877	26.9	0
75	877	27	0
75	877	27.1	0
75	877	27.2	0
75	877	27.3	0
75	877	27.4	0
75	877	27.5	0
75	877	27.6	0
75	877	27.7	0
75	877	27.8	0
75	877	27.9	0
75	877	28	0
75	877	28.1	0
75	877	28.2	0
75	877	28.3	0
75	877	28.4	0
75	877	28.5	0
75	877	28.6	0
75	877	28.7	0
75	877	28.8	0
75	877	28.9	0
75	877	29	0
75	877	29.1	0
75	877	29.2	0
75	877	29.3	0
75	877	29.4	0
75	877	29.5	0
75	877	29.6	0
75	877	29.7	0
75	877	29.8	0
75	877	29.9	0
75	877	30	0
75	877	30.1	0
75	877	30.2	0
75	877	30.3	0
75	877	30.4	0
75	877	30.5	0
75	877	30.6	0
75	877	30.7	0
75	877	30.8	0
75	877	30.9	0
75	877	31	0
75	877	31.1	0
75	877	31.2	0
75	877	31.3	0
75	877	31.4	0
75	877	31.5	0
75	877	31.6	0
75	877	31.7	0
75	877	31.8	0
75	877	31.9	0
75	877	32	0
75	877	32.1	0
75	877	32.2	0
75	877	32.3	0
75	877	32.4	0
75	877	32.5	0
75	877	32.6	0
75	877	32.7	0
75	877	32.8	0
75	877	32.9	0
75	877	33	0
75	877	33.1	0
75	877	33.2	0
75	877	33.3	0
75	877	33.4	0
75	877	33.5	0
75	877	33.6	0
75	877	33.7	0
75	877	33.8	0
75	877	33.9	0
75	877	34	0
75	877	34.1	0
75	877	34.2	0
75	877	34.3	0
75	877	34.4	0
75	877	34.5	0
75	877	34.6	0
75	877	34.7	0
75	877	34.8	0
75	877	34.9	0
75	877	35	0
75	877	35.1	0
75	877	35.2	0
75	877	35.3	0
75	877	35.4	0
75	877	35.5	0
75	877	35.6	0
75	877	35.7	0
75	877	35.8	0
75	877	35.9	0
75	877	36	0
75	877	36.1	0
75	877	36.2	0
75	877	36.3	0
75	877	36.4	0
75	877	36.5	0
75	877	36.6	0
75	877	36.7	0
75	877	36.8	0
75	877	36.9	0
75	877	37	0
75	877	37.1	0
75	877	37.2	0
75	877	37.3	0
75	877	37.4	0
75	877	37.5	0
75	877	37.6	0
75	877	37.7	0
75	877	37.8	0
75	877	37.9	0
75	877	38	0
75	877	38.1	0
75	877	38.2	0
75	877	38.3	0
75	877	38.4	0
75	877	38.5	0
75	877	38.6	0
75	877	38.7	0
75	877	38.8	0
75	877	38.9	0
75	877	39	0
75	877	39.1	0
75	877	39.2	0
75	877	39.3	0
75	877	39.4	0
75	877	39.5	0
75	877	39.6	0
75	877	39.7	0
75	877	39.8	0
75	877	39.9	0
75	877	40	0
75	877	40.1	0
75	877	40.2	0
75	877	40.3	0
75	877	40.4	0
75	877	40.5	0
75	877	40.6	0
75	877	40.7	0
75	877	40.8	0
75	877	40.9	0
75	877	41	0
75	877	41.1	0
75	877	41.2	0
75	877	41.3	0
75	877	41.4	0
75	877	41.5	0
75	877	41.6	0
75	877	41.7	0
75	877	41.8	0
75	877	41.9	0
75	877	42	0
75	877	42.1	0
75	877	42.2	0
75	877	42.3	0
75	877	42.4	0
75	877	42.5	0
75	877	42.6	0
75	877	42.7	0
75	877	42.8	0
75	877	42.9	0
75	877	43	0
75	877	43.1	0
75	877	43.2	0
75	877	43.3	0
75	877	43.4	0
75	877	43.5	0
75	877	43.6	0
75	877	43.7	0
75	877	43.8	0
75	877	43.9	0
75	877	44	0
75	877	44.1	0
75	877	44.2	0
75	877	44.3	0
75	877	44.4	0
75	877	44.5	0
75	877	44.6	0
75	877	44.7	0
75	877	44.8	0
75	877	44.9	0
75	877	45	0
75	877	45.1	0
75	877	45.2	0
75	877	45.3	0
75	877	45.4	0
75	877	45.5	0
75	877	45.6	0
75	877	45.7	0
75	877	45.8	0
75	877	45.9	0
75	877	46	0
75	877	46.1	0
75	877	46.2	0
75	877	46.3	0
75	877	46.4	0
75	877	46.5	0
75	877	46.6	0
75	877	46.7	0
75	877	46.8	0
75	877	46.9	0
75	877	47	0
75	877	47.1	0
75	877	47.2	0
75	877	47.3	0
75	877	47.4	0
75	877	47.5	0
75	877	47.6	0
75	877	47.7	0
75	877	47.8	0
75	877	47.9	0
75	877	48	0
75	877	48.1	0
75	877	48.2	0
75	877	48.3	0
75	877	48.4	0
75	877	48.5	0
75	877	48.6	0
75	877	48.7	0
75	877	48.8	0
75	877	48.9	0
75	877	49	0
75	877	49.1	0
75	877	49.2	0
75	877	49.3	0
75	877	49.4	0
75	877	49.5	0
75	877	49.6	0
75	877	49.7	0
75	877	49.8	0
75	877	49.9	0
75	877	50	0
75	877	50.1	0
75	877	50.2	0
75	877	50.3	0
75	877	50.4	0
75	877	50.5	0
75	877	50.6	0
75	877	50.7	0
75	877	50.8	0
75	877	50.9	0
75	877	51	0
75	877	51.1	0
75	877	51.2	0
75	877	51.3	0
75	877	51.4	0
75	877	51.5	0
75	877	51.6	0
75	877	51.7	0
75	877	51.8	0
75	877	51.9	0
75	877	52	0
75	877	52.1	0
75	877	52.2	0
75	877	52.3	0
75	877	52.4	0
75	877	52.5	0
75	877	52.6	0
75	877	52.7	0
75	877	52.8	0
75	877	52.9	0
75	877	53	0
75	877	53.1	0
75	877	53.2	0
75	877	53.3	0
75	877	53.4	0
75	877	53.5	0
75	877	53.6	0
75	877	53.7	0
75	877	53.8	0
75	877	53.9	0
75	877	54	0
75	877	54.1	0
75	877	54.2	0
75	877	54.3	0
75	877	54.4	0
75	877	54.5	0
75	877	54.6	0
75	877	54.7	0
75	877	54.8	0
75	877	54.9	0
75	877	55	0
75	877	55.1	0
75	877	55.2	0
75	877	55.3	0
75	877	55.4	0
75	877	55.5	0
75	877	55.6	0
75	877	55.7	0
75	877	55.8	0
75	877	55.9	0
75	877	56	0
75	877	56.1	0
75	877	56.2	0
75	877	56.3	0
75	877	56.4	0
75	877	56.5	0
75	877	56.6	0
75	877	56.7	0
75	877	56.8	0
75	877	56.9	0
75	877	57	0
75	877	57.1	0
75	877	57.2	0
75	877	57.3	0
75	877	57.4	0
75	877	57.5	0
75	877	57.6	0
75	877	57.7	0
75	877	57.8	0
75	877	57.9	0
75	877	58	0
75	877	58.1	0
75	877	58.2	0
75	877	58.3	0
75	877	58.4	0
75	877	58.5	0
75	877	58.6	0
75	877	58.7	0
75	877	58.8	0
75	877	58.9	0
75	877	59	0
75	877	59.1	0
75	877	59.2	0
75	877	59.3	0
75	877	59.4	0
75	877	59.5	0
75	877	59.6	0
75	877	59.7	0
75	877	59.8	0
75	877	59.9	0
75	877	60	0
76	263	20.000152353281	0.000152353281
76	271	20.000152353281	0.000152353281
76	327	20.000375809732	0.000375809732
76	355	20.000650981677	0.000650981677
76	389	20.00088761881	0.00088761881
76	451	20.001359845116	0.001359845116
77	263	20.000152353281	100
78	264	20.000152353281	108
79	266	20.000152353281	128
80	266	20.000152353281	128
81	269	20.000152353281	130
82	269	20.000152353281	158
83	269	20.000152353281	1
83	403	20.00097161881	0
84	269	20.000152353281	10
85	269	20.000152353281	1
85	306	20.000223809732	0
85	322	20.000375809732	1
85	339	20.000498981677	0
85	350	20.000650981677	1
85	373	20.00073561881	0
85	384	20.00088761881	1
85	402	20.00097161881	0
86	273	20.000152511809	158
86	345	20.000650788375	158
86	391	20.000887777338	158
86	419	20.001123916733	158
86	459	20.001360023201	158
87	273	20.000152511809	158
87	345	20.000650788375	158
87	391	20.000887777338	158
87	419	20.001123916733	158
87	459	20.001360023201	158
88	273	20.000152511809	158
88	345	20.000650788375	158
88	391	20.000887777338	158
88	419	20.001123916733	158
88	459	20.001360023201	158
89	273	20.000152511809	158
89	345	20.000650788375	158
89	391	20.000887777338	158
89	419	20.001123916733	158
89	459	20.001360023201	158
90	273	20.000152511809	130
90	345	20.000650788375	130
90	391	20.000887777338	130
90	419	20.001123916733	130
90	459	20.001360023201	130
91	275	20.000152511809	128
91	282	20.000152511809	128
91	347	20.000650788375	128
91	393	20.000887777338	128
91	421	20.001123916733	128
91	461	20.001360023201	128
92	276	20.000152511809	108
92	284	20.000152511809	108
92	348	20.000650788375	108
92	394	20.000887777338	108
92	422	20.001123916733	108
92	462	20.001360023201	108
93	276	20.000152511809	1
93	284	20.000152511809	2
93	348	20.000650788375	3
93	394	20.000887777338	4
93	422	20.001123916733	5
93	462	20.001360023201	6
94	277	20.000152511809	100
94	285	20.000152511809	100
94	349	20.000650788375	100
94	395	20.000887777338	100
94	423	20.001123916733	100
94	463	20.001360023201	100
95	277	0.1	0
95	277	0.2	0
95	277	0.3	0
95	277	0.4	0
95	277	0.5	0
95	277	0.6	0
95	277	0.7	0
95	277	0.8	0
95	277	0.9	0
95	277	1	0
95	277	1.1	0
95	277	1.2	0
95	277	1.3	0
95	277	1.4	0
95	277	1.5	0
95	277	1.6	0
95	277	1.7	0
95	277	1.8	0
95	277	1.9	0
95	277	2	0
95	277	2.1	0
95	277	2.2	0
95	277	2.3	0
95	277	2.4	0
95	277	2.5	0
95	277	2.6	0
95	277	2.7	0
95	277	2.8	0
95	277	2.9	0
95	277	3	0
95	277	3.1	0
95	277	3.2	0
95	277	3.3	0
95	277	3.4	0
95	277	3.5	0
95	277	3.6	0
95	277	3.7	0
95	277	3.8	0
95	277	3.9	0
95	277	4	0
95	277	4.1	0
95	277	4.2	0
95	277	4.3	0
95	277	4.4	0
95	277	4.5	0
95	277	4.6	0
95	277	4.7	0
95	277	4.8	0
95	277	4.9	0
95	277	5	0
95	277	5.1	0
95	277	5.2	0
95	277	5.3	0
95	277	5.4	0
95	277	5.5	0
95	277	5.6	0
95	277	5.7	0
95	277	5.8	0
95	277	5.9	0
95	277	6	0
95	277	6.1	0
95	277	6.2	0
95	277	6.3	0
95	277	6.4	0
95	277	6.5	0
95	277	6.6	0
95	277	6.7	0
95	277	6.8	0
95	277	6.9	0
95	277	7	0
95	277	7.1	0
95	277	7.2	0
95	277	7.3	0
95	277	7.4	0
95	277	7.5	0
95	277	7.6	0
95	277	7.7	0
95	277	7.8	0
95	277	7.9	0
95	277	8	0
95	277	8.1	0
95	277	8.2	0
95	277	8.3	0
95	277	8.4	0
95	277	8.5	0
95	277	8.6	0
95	277	8.7	0
95	277	8.8	0
95	277	8.9	0
95	277	9	0
95	277	9.1	0
95	277	9.2	0
95	277	9.3	0
95	277	9.4	0
95	277	9.5	0
95	277	9.6	0
95	277	9.7	0
95	277	9.8	0
95	277	9.9	0
95	277	10	0
95	277	10.1	0
95	277	10.2	0
95	277	10.3	0
95	277	10.4	0
95	277	10.5	0
95	277	10.6	0
95	277	10.7	0
95	277	10.8	0
95	277	10.9	0
95	277	11	0
95	277	11.1	0
95	277	11.2	0
95	277	11.3	0
95	277	11.4	0
95	277	11.5	0
95	277	11.6	0
95	277	11.7	0
95	277	11.8	0
95	277	11.9	0
95	277	12	0
95	277	12.1	0
95	277	12.2	0
95	277	12.3	0
95	277	12.4	0
95	277	12.5	0
95	277	12.6	0
95	277	12.7	0
95	277	12.8	0
95	277	12.9	0
95	277	13	0
95	277	13.1	0
95	277	13.2	0
95	277	13.3	0
95	277	13.4	0
95	277	13.5	0
95	277	13.6	0
95	277	13.7	0
95	277	13.8	0
95	277	13.9	0
95	277	14	0
95	277	14.1	0
95	277	14.2	0
95	277	14.3	0
95	277	14.4	0
95	277	14.5	0
95	277	14.6	0
95	277	14.7	0
95	277	14.8	0
95	277	14.9	0
95	277	15	0
95	277	15.1	0
95	277	15.2	0
95	277	15.3	0
95	277	15.4	0
95	277	15.5	0
95	277	15.6	0
95	277	15.7	0
95	277	15.8	0
95	277	15.9	0
95	277	16	0
95	277	16.1	0
95	277	16.2	0
95	277	16.3	0
95	277	16.4	0
95	277	16.5	0
95	277	16.6	0
95	277	16.7	0
95	277	16.8	0
95	277	16.9	0
95	277	17	0
95	277	17.1	0
95	277	17.2	0
95	277	17.3	0
95	277	17.4	0
95	277	17.5	0
95	277	17.6	0
95	277	17.7	0
95	277	17.8	0
95	277	17.9	0
95	277	18	0
95	277	18.1	0
95	277	18.2	0
95	277	18.3	0
95	277	18.4	0
95	277	18.5	0
95	277	18.6	0
95	277	18.7	0
95	277	18.8	0
95	277	18.9	0
95	277	19	0
95	277	19.1	0
95	277	19.2	0
95	277	19.3	0
95	277	19.4	0
95	277	19.5	0
95	277	19.6	0
95	277	19.7	0
95	277	19.8	0
95	277	19.9	0
95	277	20	0
95	877	20.1	48000
95	877	20.2	0
95	877	20.3	0
95	877	20.4	0
95	877	20.5	0
95	877	20.6	0
95	877	20.7	0
95	877	20.8	0
95	877	20.9	0
95	877	21	0
95	877	21.1	0
95	877	21.2	0
95	877	21.3	0
95	877	21.4	0
95	877	21.5	0
95	877	21.6	0
95	877	21.7	0
95	877	21.8	0
95	877	21.9	0
95	877	22	0
95	877	22.1	0
95	877	22.2	0
95	877	22.3	0
95	877	22.4	0
95	877	22.5	0
95	877	22.6	0
95	877	22.7	0
95	877	22.8	0
95	877	22.9	0
95	877	23	0
95	877	23.1	0
95	877	23.2	0
95	877	23.3	0
95	877	23.4	0
95	877	23.5	0
95	877	23.6	0
95	877	23.7	0
95	877	23.8	0
95	877	23.9	0
95	877	24	0
95	877	24.1	0
95	877	24.2	0
95	877	24.3	0
95	877	24.4	0
95	877	24.5	0
95	877	24.6	0
95	877	24.7	0
95	877	24.8	0
95	877	24.9	0
95	877	25	0
95	877	25.1	0
95	877	25.2	0
95	877	25.3	0
95	877	25.4	0
95	877	25.5	0
95	877	25.6	0
95	877	25.7	0
95	877	25.8	0
95	877	25.9	0
95	877	26	0
95	877	26.1	0
95	877	26.2	0
95	877	26.3	0
95	877	26.4	0
95	877	26.5	0
95	877	26.6	0
95	877	26.7	0
95	877	26.8	0
95	877	26.9	0
95	877	27	0
95	877	27.1	0
95	877	27.2	0
95	877	27.3	0
95	877	27.4	0
95	877	27.5	0
95	877	27.6	0
95	877	27.7	0
95	877	27.8	0
95	877	27.9	0
95	877	28	0
95	877	28.1	0
95	877	28.2	0
95	877	28.3	0
95	877	28.4	0
95	877	28.5	0
95	877	28.6	0
95	877	28.7	0
95	877	28.8	0
95	877	28.9	0
95	877	29	0
95	877	29.1	0
95	877	29.2	0
95	877	29.3	0
95	877	29.4	0
95	877	29.5	0
95	877	29.6	0
95	877	29.7	0
95	877	29.8	0
95	877	29.9	0
95	877	30	0
95	877	30.1	0
95	877	30.2	0
95	877	30.3	0
95	877	30.4	0
95	877	30.5	0
95	877	30.6	0
95	877	30.7	0
95	877	30.8	0
95	877	30.9	0
95	877	31	0
95	877	31.1	0
95	877	31.2	0
95	877	31.3	0
95	877	31.4	0
95	877	31.5	0
95	877	31.6	0
95	877	31.7	0
95	877	31.8	0
95	877	31.9	0
95	877	32	0
95	877	32.1	0
95	877	32.2	0
95	877	32.3	0
95	877	32.4	0
95	877	32.5	0
95	877	32.6	0
95	877	32.7	0
95	877	32.8	0
95	877	32.9	0
95	877	33	0
95	877	33.1	0
95	877	33.2	0
95	877	33.3	0
95	877	33.4	0
95	877	33.5	0
95	877	33.6	0
95	877	33.7	0
95	877	33.8	0
95	877	33.9	0
95	877	34	0
95	877	34.1	0
95	877	34.2	0
95	877	34.3	0
95	877	34.4	0
95	877	34.5	0
95	877	34.6	0
95	877	34.7	0
95	877	34.8	0
95	877	34.9	0
95	877	35	0
95	877	35.1	0
95	877	35.2	0
95	877	35.3	0
95	877	35.4	0
95	877	35.5	0
95	877	35.6	0
95	877	35.7	0
95	877	35.8	0
95	877	35.9	0
95	877	36	0
95	877	36.1	0
95	877	36.2	0
95	877	36.3	0
95	877	36.4	0
95	877	36.5	0
95	877	36.6	0
95	877	36.7	0
95	877	36.8	0
95	877	36.9	0
95	877	37	0
95	877	37.1	0
95	877	37.2	0
95	877	37.3	0
95	877	37.4	0
95	877	37.5	0
95	877	37.6	0
95	877	37.7	0
95	877	37.8	0
95	877	37.9	0
95	877	38	0
95	877	38.1	0
95	877	38.2	0
95	877	38.3	0
95	877	38.4	0
95	877	38.5	0
95	877	38.6	0
95	877	38.7	0
95	877	38.8	0
95	877	38.9	0
95	877	39	0
95	877	39.1	0
95	877	39.2	0
95	877	39.3	0
95	877	39.4	0
95	877	39.5	0
95	877	39.6	0
95	877	39.7	0
95	877	39.8	0
95	877	39.9	0
95	877	40	0
95	877	40.1	0
95	877	40.2	0
95	877	40.3	0
95	877	40.4	0
95	877	40.5	0
95	877	40.6	0
95	877	40.7	0
95	877	40.8	0
95	877	40.9	0
95	877	41	0
95	877	41.1	0
95	877	41.2	0
95	877	41.3	0
95	877	41.4	0
95	877	41.5	0
95	877	41.6	0
95	877	41.7	0
95	877	41.8	0
95	877	41.9	0
95	877	42	0
95	877	42.1	0
95	877	42.2	0
95	877	42.3	0
95	877	42.4	0
95	877	42.5	0
95	877	42.6	0
95	877	42.7	0
95	877	42.8	0
95	877	42.9	0
95	877	43	0
95	877	43.1	0
95	877	43.2	0
95	877	43.3	0
95	877	43.4	0
95	877	43.5	0
95	877	43.6	0
95	877	43.7	0
95	877	43.8	0
95	877	43.9	0
95	877	44	0
95	877	44.1	0
95	877	44.2	0
95	877	44.3	0
95	877	44.4	0
95	877	44.5	0
95	877	44.6	0
95	877	44.7	0
95	877	44.8	0
95	877	44.9	0
95	877	45	0
95	877	45.1	0
95	877	45.2	0
95	877	45.3	0
95	877	45.4	0
95	877	45.5	0
95	877	45.6	0
95	877	45.7	0
95	877	45.8	0
95	877	45.9	0
95	877	46	0
95	877	46.1	0
95	877	46.2	0
95	877	46.3	0
95	877	46.4	0
95	877	46.5	0
95	877	46.6	0
95	877	46.7	0
95	877	46.8	0
95	877	46.9	0
95	877	47	0
95	877	47.1	0
95	877	47.2	0
95	877	47.3	0
95	877	47.4	0
95	877	47.5	0
95	877	47.6	0
95	877	47.7	0
95	877	47.8	0
95	877	47.9	0
95	877	48	0
95	877	48.1	0
95	877	48.2	0
95	877	48.3	0
95	877	48.4	0
95	877	48.5	0
95	877	48.6	0
95	877	48.7	0
95	877	48.8	0
95	877	48.9	0
95	877	49	0
95	877	49.1	0
95	877	49.2	0
95	877	49.3	0
95	877	49.4	0
95	877	49.5	0
95	877	49.6	0
95	877	49.7	0
95	877	49.8	0
95	877	49.9	0
95	877	50	0
95	877	50.1	0
95	877	50.2	0
95	877	50.3	0
95	877	50.4	0
95	877	50.5	0
95	877	50.6	0
95	877	50.7	0
95	877	50.8	0
95	877	50.9	0
95	877	51	0
95	877	51.1	0
95	877	51.2	0
95	877	51.3	0
95	877	51.4	0
95	877	51.5	0
95	877	51.6	0
95	877	51.7	0
95	877	51.8	0
95	877	51.9	0
95	877	52	0
95	877	52.1	0
95	877	52.2	0
95	877	52.3	0
95	877	52.4	0
95	877	52.5	0
95	877	52.6	0
95	877	52.7	0
95	877	52.8	0
95	877	52.9	0
95	877	53	0
95	877	53.1	0
95	877	53.2	0
95	877	53.3	0
95	877	53.4	0
95	877	53.5	0
95	877	53.6	0
95	877	53.7	0
95	877	53.8	0
95	877	53.9	0
95	877	54	0
95	877	54.1	0
95	877	54.2	0
95	877	54.3	0
95	877	54.4	0
95	877	54.5	0
95	877	54.6	0
95	877	54.7	0
95	877	54.8	0
95	877	54.9	0
95	877	55	0
95	877	55.1	0
95	877	55.2	0
95	877	55.3	0
95	877	55.4	0
95	877	55.5	0
95	877	55.6	0
95	877	55.7	0
95	877	55.8	0
95	877	55.9	0
95	877	56	0
95	877	56.1	0
95	877	56.2	0
95	877	56.3	0
95	877	56.4	0
95	877	56.5	0
95	877	56.6	0
95	877	56.7	0
95	877	56.8	0
95	877	56.9	0
95	877	57	0
95	877	57.1	0
95	877	57.2	0
95	877	57.3	0
95	877	57.4	0
95	877	57.5	0
95	877	57.6	0
95	877	57.7	0
95	877	57.8	0
95	877	57.9	0
95	877	58	0
95	877	58.1	0
95	877	58.2	0
95	877	58.3	0
95	877	58.4	0
95	877	58.5	0
95	877	58.6	0
95	877	58.7	0
95	877	58.8	0
95	877	58.9	0
95	877	59	0
95	877	59.1	0
95	877	59.2	0
95	877	59.3	0
95	877	59.4	0
95	877	59.5	0
95	877	59.6	0
95	877	59.7	0
95	877	59.8	0
95	877	59.9	0
95	877	60	0
96	277	20.000152511809	0.000152511809
96	285	20.000152511809	0.000152511809
96	349	20.000650788375	0.000650788375
96	395	20.000887777338	0.000887777338
96	423	20.001123916733	0.001123916733
96	463	20.001360023201	0.001360023201
97	277	20.000152511809	100
98	278	20.000152511809	108
99	280	20.000152511809	128
100	280	20.000152511809	128
101	283	20.000152511809	130
102	283	20.000152511809	158
103	283	20.000152511809	1
103	301	20.000223511809	0
104	283	20.000152511809	1
105	283	20.000152511809	1
105	300	20.000223511809	0
106	287	20.000152615437	158
106	311	20.000375650092	158
106	397	20.000887880966	158
106	425	20.001123950395	158
106	465	20.001360100906	158
107	287	20.000152615437	158
107	311	20.000375650092	158
107	397	20.000887880966	158
107	425	20.001123950395	158
107	465	20.001360100906	158
108	287	20.000152615437	158
108	311	20.000375650092	158
108	397	20.000887880966	158
108	425	20.001123950395	158
108	465	20.001360100906	158
109	287	20.000152615437	158
109	311	20.000375650092	158
109	397	20.000887880966	158
109	425	20.001123950395	158
109	465	20.001360100906	158
110	287	20.000152615437	130
110	311	20.000375650092	130
110	397	20.000887880966	130
110	425	20.001123950395	130
110	465	20.001360100906	130
111	289	20.000152615437	128
111	296	20.000152615437	128
111	313	20.000375650092	128
111	399	20.000887880966	128
111	427	20.001123950395	128
111	467	20.001360100906	128
112	290	20.000152615437	108
112	298	20.000152615437	108
112	314	20.000375650092	108
112	400	20.000887880966	108
112	428	20.001123950395	108
112	468	20.001360100906	108
113	290	20.000152615437	1
113	298	20.000152615437	2
113	314	20.000375650092	3
113	400	20.000887880966	4
113	428	20.001123950395	5
113	468	20.001360100906	6
114	291	20.000152615437	100
114	299	20.000152615437	100
114	315	20.000375650092	100
114	401	20.000887880966	100
114	429	20.001123950395	100
114	469	20.001360100906	100
115	291	0.1	0
115	291	0.2	0
115	291	0.3	0
115	291	0.4	0
115	291	0.5	0
115	291	0.6	0
115	291	0.7	0
115	291	0.8	0
115	291	0.9	0
115	291	1	0
115	291	1.1	0
115	291	1.2	0
115	291	1.3	0
115	291	1.4	0
115	291	1.5	0
115	291	1.6	0
115	291	1.7	0
115	291	1.8	0
115	291	1.9	0
115	291	2	0
115	291	2.1	0
115	291	2.2	0
115	291	2.3	0
115	291	2.4	0
115	291	2.5	0
115	291	2.6	0
115	291	2.7	0
115	291	2.8	0
115	291	2.9	0
115	291	3	0
115	291	3.1	0
115	291	3.2	0
115	291	3.3	0
115	291	3.4	0
115	291	3.5	0
115	291	3.6	0
115	291	3.7	0
115	291	3.8	0
115	291	3.9	0
115	291	4	0
115	291	4.1	0
115	291	4.2	0
115	291	4.3	0
115	291	4.4	0
115	291	4.5	0
115	291	4.6	0
115	291	4.7	0
115	291	4.8	0
115	291	4.9	0
115	291	5	0
115	291	5.1	0
115	291	5.2	0
115	291	5.3	0
115	291	5.4	0
115	291	5.5	0
115	291	5.6	0
115	291	5.7	0
115	291	5.8	0
115	291	5.9	0
115	291	6	0
115	291	6.1	0
115	291	6.2	0
115	291	6.3	0
115	291	6.4	0
115	291	6.5	0
115	291	6.6	0
115	291	6.7	0
115	291	6.8	0
115	291	6.9	0
115	291	7	0
115	291	7.1	0
115	291	7.2	0
115	291	7.3	0
115	291	7.4	0
115	291	7.5	0
115	291	7.6	0
115	291	7.7	0
115	291	7.8	0
115	291	7.9	0
115	291	8	0
115	291	8.1	0
115	291	8.2	0
115	291	8.3	0
115	291	8.4	0
115	291	8.5	0
115	291	8.6	0
115	291	8.7	0
115	291	8.8	0
115	291	8.9	0
115	291	9	0
115	291	9.1	0
115	291	9.2	0
115	291	9.3	0
115	291	9.4	0
115	291	9.5	0
115	291	9.6	0
115	291	9.7	0
115	291	9.8	0
115	291	9.9	0
115	291	10	0
115	291	10.1	0
115	291	10.2	0
115	291	10.3	0
115	291	10.4	0
115	291	10.5	0
115	291	10.6	0
115	291	10.7	0
115	291	10.8	0
115	291	10.9	0
115	291	11	0
115	291	11.1	0
115	291	11.2	0
115	291	11.3	0
115	291	11.4	0
115	291	11.5	0
115	291	11.6	0
115	291	11.7	0
115	291	11.8	0
115	291	11.9	0
115	291	12	0
115	291	12.1	0
115	291	12.2	0
115	291	12.3	0
115	291	12.4	0
115	291	12.5	0
115	291	12.6	0
115	291	12.7	0
115	291	12.8	0
115	291	12.9	0
115	291	13	0
115	291	13.1	0
115	291	13.2	0
115	291	13.3	0
115	291	13.4	0
115	291	13.5	0
115	291	13.6	0
115	291	13.7	0
115	291	13.8	0
115	291	13.9	0
115	291	14	0
115	291	14.1	0
115	291	14.2	0
115	291	14.3	0
115	291	14.4	0
115	291	14.5	0
115	291	14.6	0
115	291	14.7	0
115	291	14.8	0
115	291	14.9	0
115	291	15	0
115	291	15.1	0
115	291	15.2	0
115	291	15.3	0
115	291	15.4	0
115	291	15.5	0
115	291	15.6	0
115	291	15.7	0
115	291	15.8	0
115	291	15.9	0
115	291	16	0
115	291	16.1	0
115	291	16.2	0
115	291	16.3	0
115	291	16.4	0
115	291	16.5	0
115	291	16.6	0
115	291	16.7	0
115	291	16.8	0
115	291	16.9	0
115	291	17	0
115	291	17.1	0
115	291	17.2	0
115	291	17.3	0
115	291	17.4	0
115	291	17.5	0
115	291	17.6	0
115	291	17.7	0
115	291	17.8	0
115	291	17.9	0
115	291	18	0
115	291	18.1	0
115	291	18.2	0
115	291	18.3	0
115	291	18.4	0
115	291	18.5	0
115	291	18.6	0
115	291	18.7	0
115	291	18.8	0
115	291	18.9	0
115	291	19	0
115	291	19.1	0
115	291	19.2	0
115	291	19.3	0
115	291	19.4	0
115	291	19.5	0
115	291	19.6	0
115	291	19.7	0
115	291	19.8	0
115	291	19.9	0
115	291	20	0
115	877	20.1	48000
115	877	20.2	0
115	877	20.3	0
115	877	20.4	0
115	877	20.5	0
115	877	20.6	0
115	877	20.7	0
115	877	20.8	0
115	877	20.9	0
115	877	21	0
115	877	21.1	0
115	877	21.2	0
115	877	21.3	0
115	877	21.4	0
115	877	21.5	0
115	877	21.6	0
115	877	21.7	0
115	877	21.8	0
115	877	21.9	0
115	877	22	0
115	877	22.1	0
115	877	22.2	0
115	877	22.3	0
115	877	22.4	0
115	877	22.5	0
115	877	22.6	0
115	877	22.7	0
115	877	22.8	0
115	877	22.9	0
115	877	23	0
115	877	23.1	0
115	877	23.2	0
115	877	23.3	0
115	877	23.4	0
115	877	23.5	0
115	877	23.6	0
115	877	23.7	0
115	877	23.8	0
115	877	23.9	0
115	877	24	0
115	877	24.1	0
115	877	24.2	0
115	877	24.3	0
115	877	24.4	0
115	877	24.5	0
115	877	24.6	0
115	877	24.7	0
115	877	24.8	0
115	877	24.9	0
115	877	25	0
115	877	25.1	0
115	877	25.2	0
115	877	25.3	0
115	877	25.4	0
115	877	25.5	0
115	877	25.6	0
115	877	25.7	0
115	877	25.8	0
115	877	25.9	0
115	877	26	0
115	877	26.1	0
115	877	26.2	0
115	877	26.3	0
115	877	26.4	0
115	877	26.5	0
115	877	26.6	0
115	877	26.7	0
115	877	26.8	0
115	877	26.9	0
115	877	27	0
115	877	27.1	0
115	877	27.2	0
115	877	27.3	0
115	877	27.4	0
115	877	27.5	0
115	877	27.6	0
115	877	27.7	0
115	877	27.8	0
115	877	27.9	0
115	877	28	0
115	877	28.1	0
115	877	28.2	0
115	877	28.3	0
115	877	28.4	0
115	877	28.5	0
115	877	28.6	0
115	877	28.7	0
115	877	28.8	0
115	877	28.9	0
115	877	29	0
115	877	29.1	0
115	877	29.2	0
115	877	29.3	0
115	877	29.4	0
115	877	29.5	0
115	877	29.6	0
115	877	29.7	0
115	877	29.8	0
115	877	29.9	0
115	877	30	0
115	877	30.1	0
115	877	30.2	0
115	877	30.3	0
115	877	30.4	0
115	877	30.5	0
115	877	30.6	0
115	877	30.7	0
115	877	30.8	0
115	877	30.9	0
115	877	31	0
115	877	31.1	0
115	877	31.2	0
115	877	31.3	0
115	877	31.4	0
115	877	31.5	0
115	877	31.6	0
115	877	31.7	0
115	877	31.8	0
115	877	31.9	0
115	877	32	0
115	877	32.1	0
115	877	32.2	0
115	877	32.3	0
115	877	32.4	0
115	877	32.5	0
115	877	32.6	0
115	877	32.7	0
115	877	32.8	0
115	877	32.9	0
115	877	33	0
115	877	33.1	0
115	877	33.2	0
115	877	33.3	0
115	877	33.4	0
115	877	33.5	0
115	877	33.6	0
115	877	33.7	0
115	877	33.8	0
115	877	33.9	0
115	877	34	0
115	877	34.1	0
115	877	34.2	0
115	877	34.3	0
115	877	34.4	0
115	877	34.5	0
115	877	34.6	0
115	877	34.7	0
115	877	34.8	0
115	877	34.9	0
115	877	35	0
115	877	35.1	0
115	877	35.2	0
115	877	35.3	0
115	877	35.4	0
115	877	35.5	0
115	877	35.6	0
115	877	35.7	0
115	877	35.8	0
115	877	35.9	0
115	877	36	0
115	877	36.1	0
115	877	36.2	0
115	877	36.3	0
115	877	36.4	0
115	877	36.5	0
115	877	36.6	0
115	877	36.7	0
115	877	36.8	0
115	877	36.9	0
115	877	37	0
115	877	37.1	0
115	877	37.2	0
115	877	37.3	0
115	877	37.4	0
115	877	37.5	0
115	877	37.6	0
115	877	37.7	0
115	877	37.8	0
115	877	37.9	0
115	877	38	0
115	877	38.1	0
115	877	38.2	0
115	877	38.3	0
115	877	38.4	0
115	877	38.5	0
115	877	38.6	0
115	877	38.7	0
115	877	38.8	0
115	877	38.9	0
115	877	39	0
115	877	39.1	0
115	877	39.2	0
115	877	39.3	0
115	877	39.4	0
115	877	39.5	0
115	877	39.6	0
115	877	39.7	0
115	877	39.8	0
115	877	39.9	0
115	877	40	0
115	877	40.1	0
115	877	40.2	0
115	877	40.3	0
115	877	40.4	0
115	877	40.5	0
115	877	40.6	0
115	877	40.7	0
115	877	40.8	0
115	877	40.9	0
115	877	41	0
115	877	41.1	0
115	877	41.2	0
115	877	41.3	0
115	877	41.4	0
115	877	41.5	0
115	877	41.6	0
115	877	41.7	0
115	877	41.8	0
115	877	41.9	0
115	877	42	0
115	877	42.1	0
115	877	42.2	0
115	877	42.3	0
115	877	42.4	0
115	877	42.5	0
115	877	42.6	0
115	877	42.7	0
115	877	42.8	0
115	877	42.9	0
115	877	43	0
115	877	43.1	0
115	877	43.2	0
115	877	43.3	0
115	877	43.4	0
115	877	43.5	0
115	877	43.6	0
115	877	43.7	0
115	877	43.8	0
115	877	43.9	0
115	877	44	0
115	877	44.1	0
115	877	44.2	0
115	877	44.3	0
115	877	44.4	0
115	877	44.5	0
115	877	44.6	0
115	877	44.7	0
115	877	44.8	0
115	877	44.9	0
115	877	45	0
115	877	45.1	0
115	877	45.2	0
115	877	45.3	0
115	877	45.4	0
115	877	45.5	0
115	877	45.6	0
115	877	45.7	0
115	877	45.8	0
115	877	45.9	0
115	877	46	0
115	877	46.1	0
115	877	46.2	0
115	877	46.3	0
115	877	46.4	0
115	877	46.5	0
115	877	46.6	0
115	877	46.7	0
115	877	46.8	0
115	877	46.9	0
115	877	47	0
115	877	47.1	0
115	877	47.2	0
115	877	47.3	0
115	877	47.4	0
115	877	47.5	0
115	877	47.6	0
115	877	47.7	0
115	877	47.8	0
115	877	47.9	0
115	877	48	0
115	877	48.1	0
115	877	48.2	0
115	877	48.3	0
115	877	48.4	0
115	877	48.5	0
115	877	48.6	0
115	877	48.7	0
115	877	48.8	0
115	877	48.9	0
115	877	49	0
115	877	49.1	0
115	877	49.2	0
115	877	49.3	0
115	877	49.4	0
115	877	49.5	0
115	877	49.6	0
115	877	49.7	0
115	877	49.8	0
115	877	49.9	0
115	877	50	0
115	877	50.1	0
115	877	50.2	0
115	877	50.3	0
115	877	50.4	0
115	877	50.5	0
115	877	50.6	0
115	877	50.7	0
115	877	50.8	0
115	877	50.9	0
115	877	51	0
115	877	51.1	0
115	877	51.2	0
115	877	51.3	0
115	877	51.4	0
115	877	51.5	0
115	877	51.6	0
115	877	51.7	0
115	877	51.8	0
115	877	51.9	0
115	877	52	0
115	877	52.1	0
115	877	52.2	0
115	877	52.3	0
115	877	52.4	0
115	877	52.5	0
115	877	52.6	0
115	877	52.7	0
115	877	52.8	0
115	877	52.9	0
115	877	53	0
115	877	53.1	0
115	877	53.2	0
115	877	53.3	0
115	877	53.4	0
115	877	53.5	0
115	877	53.6	0
115	877	53.7	0
115	877	53.8	0
115	877	53.9	0
115	877	54	0
115	877	54.1	0
115	877	54.2	0
115	877	54.3	0
115	877	54.4	0
115	877	54.5	0
115	877	54.6	0
115	877	54.7	0
115	877	54.8	0
115	877	54.9	0
115	877	55	0
115	877	55.1	0
115	877	55.2	0
115	877	55.3	0
115	877	55.4	0
115	877	55.5	0
115	877	55.6	0
115	877	55.7	0
115	877	55.8	0
115	877	55.9	0
115	877	56	0
115	877	56.1	0
115	877	56.2	0
115	877	56.3	0
115	877	56.4	0
115	877	56.5	0
115	877	56.6	0
115	877	56.7	0
115	877	56.8	0
115	877	56.9	0
115	877	57	0
115	877	57.1	0
115	877	57.2	0
115	877	57.3	0
115	877	57.4	0
115	877	57.5	0
115	877	57.6	0
115	877	57.7	0
115	877	57.8	0
115	877	57.9	0
115	877	58	0
115	877	58.1	0
115	877	58.2	0
115	877	58.3	0
115	877	58.4	0
115	877	58.5	0
115	877	58.6	0
115	877	58.7	0
115	877	58.8	0
115	877	58.9	0
115	877	59	0
115	877	59.1	0
115	877	59.2	0
115	877	59.3	0
115	877	59.4	0
115	877	59.5	0
115	877	59.6	0
115	877	59.7	0
115	877	59.8	0
115	877	59.9	0
115	877	60	0
116	291	20.000152615437	0.000152615437
116	299	20.000152615437	0.000152615437
116	315	20.000375650092	0.000375650092
116	401	20.000887880966	0.000887880966
116	429	20.001123950395	0.001123950395
116	469	20.001360100906	0.001360100906
117	291	20.000152615437	100
118	292	20.000152615437	108
119	294	20.000152615437	128
120	294	20.000152615437	128
121	297	20.000152615437	130
122	297	20.000152615437	158
123	297	20.000152615437	1
123	335	20.000498650092	0
124	297	20.000152615437	6
125	297	20.000152615437	1
125	304	20.000223650092	0
125	310	20.000375650092	1
125	334	20.000498650092	0
126	301	20.000223511809	158
127	301	20.000223511809	7.1e-005
128	301	20.000223511809	1
128	308	20.000375511809	0
129	301	20.000223511809	12000000
130	301	20.000223511809	158
131	301	20.000223511809	1
131	308	20.000375511809	0
132	302	20.000223511809	1
132	303	20.000223511809	2
132	308	20.000375511809	1
132	309	20.000375511809	0
133	308	20.000375511809	158
134	308	20.000375511809	158
135	308	20.000375511809	158
136	308	20.000375511809	0.000152
137	329	20.000376023618	158
137	363	20.000651265529	158
137	431	20.001123972091	158
137	453	20.001359990424	158
138	329	20.000376023618	158
138	363	20.000651265529	158
138	431	20.001123972091	158
138	453	20.001359990424	158
139	329	20.000376023618	158
139	363	20.000651265529	158
139	431	20.001123972091	158
139	453	20.001359990424	158
140	329	20.000376023618	158
140	363	20.000651265529	158
140	431	20.001123972091	158
140	453	20.001359990424	158
141	329	20.000376023618	130
141	363	20.000651265529	130
141	431	20.001123972091	130
141	453	20.001359990424	130
142	335	20.000498650092	158
143	335	20.000498650092	0.000346034655
144	335	20.000498650092	1
144	342	20.000650650092	0
145	335	20.000498650092	12000000
146	335	20.000498650092	158
147	335	20.000498650092	1
147	342	20.000650650092	0
148	336	20.000498650092	1
148	337	20.000498650092	2
148	342	20.000650650092	1
148	343	20.000650650092	0
149	342	20.000650650092	158
150	342	20.000650650092	158
151	342	20.000650650092	158
152	342	20.000650650092	0.000152
153	403	20.00097161881	158
154	403	20.00097161881	0.000819265529
155	403	20.00097161881	1
155	410	20.00112361881	0
156	403	20.00097161881	12000000
157	403	20.00097161881	158
158	403	20.00097161881	1
158	410	20.00112361881	0
159	404	20.00097161881	1
159	405	20.00097161881	2
159	410	20.00112361881	1
159	411	20.00112361881	0
160	410	20.00112361881	158
161	410	20.00112361881	158
162	410	20.00112361881	158
163	410	20.00112361881	0.000152
164	437	20.001207731963	158
165	437	20.001207731963	0.001055473502
166	437	20.001207731963	1
166	444	20.001359731963	0
167	437	20.001207731963	12000000
168	437	20.001207731963	158
169	437	20.001207731963	1
169	444	20.001359731963	0
170	438	20.001207731963	1
170	439	20.001207731963	2
170	444	20.001359731963	1
170	445	20.001359731963	0
171	444	20.001359731963	158
172	444	20.001359731963	158
173	444	20.001359731963	158
174	444	20.001359731963	0.000152

